<?xml version="1.0" encoding="UTF-8"?>

<!-- generated on Wed Dec 10 19:12:27 2014 by SUMO duarouter Version 0.21.0



-->

<routes>

    <vType id="type1" length="5" minGap="2" vClass="passenger" guiShape="passenger">
        <carFollowing-Krauss/>
    </vType>

    <vehicle id="0" type="type1" depart="0.00">
        <route edges="U15-11 R11-12 U12-8 L8-7 D7-11"/>
    </vehicle>
    <vehicle id="flow1.0" type="type1" depart="0.00">
        <route edges="R13-14 U14-10 U10-6 R6-7 R7-8 U8-4"/>
    </vehicle>
    <vehicle id="flow2.0" type="type1" depart="0.00">
        <route edges="R1-2 R2-3 D3-7 R7-8 D8-12 D12-16"/>
    </vehicle>
    <vehicle id="1" type="type1" depart="1.00">
        <route edges="U13-9 R9-10 D10-14"/>
    </vehicle>
    <vehicle id="2" type="type1" depart="2.00">
        <route edges="U9-5 R5-6 R6-7 D7-11"/>
    </vehicle>
    <vehicle id="3" type="type1" depart="3.00">
        <route edges="D10-14 R14-15 U15-11 U11-7 U7-3 R3-4"/>
    </vehicle>
    <vehicle id="4" type="type1" depart="4.00">
        <route edges="D2-6 R6-7 U7-3 L3-2 L2-1"/>
    </vehicle>
    <vehicle id="5" type="type1" depart="5.00">
        <route edges="L12-11 L11-10 L10-9 U9-5 U5-1"/>
    </vehicle>
    <vehicle id="6" type="type1" depart="6.00">
        <route edges="U6-2 R2-3 D3-7"/>
    </vehicle>
    <vehicle id="7" type="type1" depart="7.00">
        <route edges="U9-5"/>
    </vehicle>
    <vehicle id="8" type="type1" depart="8.00">
        <route edges="L3-2 D2-6 D6-10 D10-14 R14-15 R15-16"/>
    </vehicle>
    <vehicle id="9" type="type1" depart="9.00">
        <route edges="L8-7 L7-6 D6-10 D10-14 R14-15"/>
    </vehicle>
    <vehicle id="10" type="type1" depart="10.00">
        <route edges="U10-6 R6-7 U7-3"/>
    </vehicle>
    <vehicle id="11" type="type1" depart="11.00">
        <route edges="D5-9 R9-10 U10-6 R6-7 U7-3"/>
    </vehicle>
    <vehicle id="12" type="type1" depart="12.00">
        <route edges="D2-6 L6-5 U5-1 R1-2 R2-3 D3-7"/>
    </vehicle>
    <vehicle id="13" type="type1" depart="13.00">
        <route edges="L11-10 U10-6 R6-7 D7-11 D11-15 L15-14"/>
    </vehicle>
    <vehicle id="14" type="type1" depart="14.00">
        <route edges="U14-10 R10-11 D11-15 L15-14"/>
    </vehicle>
    <vehicle id="15" type="type1" depart="15.00">
        <route edges="R9-10 R10-11 R11-12 D12-16"/>
    </vehicle>
    <vehicle id="16" type="type1" depart="16.00">
        <route edges="U5-1 R1-2 D2-6 D6-10 D10-14 R14-15 U15-11"/>
    </vehicle>
    <vehicle id="17" type="type1" depart="17.00">
        <route edges="D11-15 R15-16 U16-12"/>
    </vehicle>
    <vehicle id="18" type="type1" depart="18.00">
        <route edges="L11-10 L10-9 U9-5 R5-6 D6-10"/>
    </vehicle>
    <vehicle id="19" type="type1" depart="19.00">
        <route edges="R1-2 D2-6 L6-5 U5-1"/>
    </vehicle>
    <vehicle id="20" type="type1" depart="20.00">
        <route edges="R15-16 U16-12 L12-11 U11-7 R7-8 D8-12 D12-16"/>
    </vehicle>
    <vehicle id="21" type="type1" depart="21.00">
        <route edges="D4-8 L8-7 U7-3 L3-2 L2-1 D1-5"/>
    </vehicle>
    <vehicle id="22" type="type1" depart="22.00">
        <route edges="L12-11 D11-15 L15-14"/>
    </vehicle>
    <vehicle id="23" type="type1" depart="23.00">
        <route edges="U9-5 R5-6"/>
    </vehicle>
    <vehicle id="24" type="type1" depart="24.00">
        <route edges="D5-9 R9-10 R10-11 U11-7 L7-6 D6-10"/>
    </vehicle>
    <vehicle id="25" type="type1" depart="25.00">
        <route edges="D8-12 L12-11 U11-7"/>
    </vehicle>
    <vehicle id="26" type="type1" depart="26.00">
        <route edges="R1-2 D2-6 L6-5 D5-9 D9-13"/>
    </vehicle>
    <vehicle id="27" type="type1" depart="27.00">
        <route edges="L3-2 D2-6 R6-7 D7-11 R11-12"/>
    </vehicle>
    <vehicle id="28" type="type1" depart="28.00">
        <route edges="U15-11 R11-12 D12-16"/>
    </vehicle>
    <vehicle id="29" type="type1" depart="29.00">
        <route edges="D9-13 R13-14 U14-10 U10-6 R6-7 R7-8 D8-12"/>
    </vehicle>
    <vehicle id="30" type="type1" depart="30.00">
        <route edges="R14-15 U15-11 L11-10 D10-14"/>
    </vehicle>
    <vehicle id="31" type="type1" depart="31.00">
        <route edges="D7-11 L11-10 L10-9 U9-5 U5-1 R1-2"/>
    </vehicle>
    <vehicle id="32" type="type1" depart="32.00">
        <route edges="R14-15 U15-11 L11-10 U10-6"/>
    </vehicle>
    <vehicle id="33" type="type1" depart="33.00">
        <route edges="L15-14 U14-10 L10-9 U9-5 U5-1"/>
    </vehicle>
    <vehicle id="34" type="type1" depart="34.00">
        <route edges="L12-11 U11-7"/>
    </vehicle>
    <vehicle id="35" type="type1" depart="35.00">
        <route edges="U13-9 R9-10 R10-11 R11-12"/>
    </vehicle>
    <vehicle id="36" type="type1" depart="36.00">
        <route edges="L15-14 U14-10 R10-11"/>
    </vehicle>
    <vehicle id="37" type="type1" depart="37.00">
        <route edges="U12-8 L8-7 L7-6 L6-5 D5-9"/>
    </vehicle>
    <vehicle id="38" type="type1" depart="38.00">
        <route edges="D7-11 R11-12 U12-8"/>
    </vehicle>
    <vehicle id="39" type="type1" depart="39.00">
        <route edges="U11-7 L7-6 L6-5 U5-1"/>
    </vehicle>
    <vehicle id="40" type="type1" depart="40.00">
        <route edges="U13-9 U9-5 R5-6"/>
    </vehicle>
    <vehicle id="41" type="type1" depart="41.00">
        <route edges="R7-8 D8-12 L12-11 U11-7 L7-6 D6-10"/>
    </vehicle>
    <vehicle id="42" type="type1" depart="42.00">
        <route edges="L8-7 D7-11 R11-12 U12-8 U8-4"/>
    </vehicle>
    <vehicle id="43" type="type1" depart="43.00">
        <route edges="D4-8 L8-7 D7-11 D11-15 L15-14 L14-13"/>
    </vehicle>
    <vehicle id="44" type="type1" depart="44.00">
        <route edges="R3-4 D4-8 D8-12 D12-16 L16-15 U15-11"/>
    </vehicle>
    <vehicle id="45" type="type1" depart="45.00">
        <route edges="L14-13 U13-9 U9-5 R5-6 D6-10 L10-9"/>
    </vehicle>
    <vehicle id="46" type="type1" depart="46.00">
        <route edges="R6-7 D7-11 L11-10 U10-6 U6-2"/>
    </vehicle>
    <vehicle id="47" type="type1" depart="47.00">
        <route edges="L12-11 U11-7 L7-6 U6-2 R2-3"/>
    </vehicle>
    <vehicle id="48" type="type1" depart="48.00">
        <route edges="U15-11 U11-7 R7-8 U8-4"/>
    </vehicle>
    <vehicle id="49" type="type1" depart="49.00">
        <route edges="R3-4 D4-8 L8-7 L7-6 U6-2 R2-3"/>
    </vehicle>
    <vehicle id="50" type="type1" depart="50.00">
        <route edges="R3-4 D4-8 L8-7 U7-3 L3-2 D2-6"/>
    </vehicle>
    <vehicle id="flow1.1" type="type1" depart="50.00">
        <route edges="R13-14 U14-10 U10-6 R6-7 R7-8 U8-4"/>
    </vehicle>
    <vehicle id="flow2.1" type="type1" depart="50.00">
        <route edges="R1-2 R2-3 D3-7 R7-8 D8-12 D12-16"/>
    </vehicle>
    <vehicle id="51" type="type1" depart="51.00">
        <route edges="D12-16 L16-15 U15-11 U11-7 L7-6 U6-2 R2-3"/>
    </vehicle>
    <vehicle id="52" type="type1" depart="52.00">
        <route edges="L3-2 D2-6 L6-5"/>
    </vehicle>
    <vehicle id="53" type="type1" depart="53.00">
        <route edges="R7-8 D8-12 L12-11 U11-7 U7-3 R3-4"/>
    </vehicle>
    <vehicle id="54" type="type1" depart="54.00">
        <route edges="R3-4 D4-8 L8-7 L7-6 U6-2 R2-3"/>
    </vehicle>
    <vehicle id="55" type="type1" depart="55.00">
        <route edges="R3-4 D4-8 L8-7 D7-11 R11-12"/>
    </vehicle>
    <vehicle id="56" type="type1" depart="56.00">
        <route edges="U9-5 R5-6 R6-7 D7-11 R11-12 U12-8"/>
    </vehicle>
    <vehicle id="57" type="type1" depart="57.00">
        <route edges="U7-3 L3-2 D2-6 L6-5 D5-9 R9-10 U10-6"/>
    </vehicle>
    <vehicle id="58" type="type1" depart="58.00">
        <route edges="R9-10 R10-11 R11-12 D12-16"/>
    </vehicle>
    <vehicle id="59" type="type1" depart="59.00">
        <route edges="L16-15 L15-14 U14-10 R10-11"/>
    </vehicle>
    <vehicle id="60" type="type1" depart="60.00">
        <route edges="U8-4 L4-3 D3-7 D7-11 D11-15 L15-14 L14-13"/>
    </vehicle>
    <vehicle id="61" type="type1" depart="61.00">
        <route edges="U16-12 U12-8 L8-7 U7-3 R3-4"/>
    </vehicle>
    <vehicle id="62" type="type1" depart="62.00">
        <route edges="L4-3"/>
    </vehicle>
    <vehicle id="63" type="type1" depart="63.00">
        <route edges="D10-14 L14-13 U13-9 R9-10 U10-6"/>
    </vehicle>
    <vehicle id="64" type="type1" depart="64.00">
        <route edges="D6-10 R10-11 U11-7 L7-6 L6-5 D5-9"/>
    </vehicle>
    <vehicle id="65" type="type1" depart="65.00">
        <route edges="D3-7 L7-6 D6-10 L10-9"/>
    </vehicle>
    <vehicle id="66" type="type1" depart="66.00">
        <route edges="R5-6 U6-2"/>
    </vehicle>
    <vehicle id="67" type="type1" depart="67.00">
        <route edges="D1-5 R5-6 D6-10 L10-9 U9-5"/>
    </vehicle>
    <vehicle id="68" type="type1" depart="68.00">
        <route edges="D1-5 R5-6 R6-7 D7-11"/>
    </vehicle>
    <vehicle id="69" type="type1" depart="69.00">
        <route edges="L6-5 D5-9 R9-10 U10-6 U6-2"/>
    </vehicle>
    <vehicle id="70" type="type1" depart="70.00">
        <route edges="U6-2 R2-3 R3-4"/>
    </vehicle>
    <vehicle id="71" type="type1" depart="71.00">
        <route edges="L6-5 U5-1 R1-2 D2-6 D6-10"/>
    </vehicle>
    <vehicle id="72" type="type1" depart="72.00">
        <route edges="D3-7 R7-8 D8-12 D12-16 L16-15"/>
    </vehicle>
    <vehicle id="73" type="type1" depart="73.00">
        <route edges="L15-14 U14-10 R10-11 R11-12"/>
    </vehicle>
    <vehicle id="74" type="type1" depart="74.00">
        <route edges="L6-5 D5-9 R9-10 U10-6 R6-7 D7-11"/>
    </vehicle>
    <vehicle id="75" type="type1" depart="75.00">
        <route edges="D3-7 L7-6 D6-10 D10-14 R14-15 U15-11"/>
    </vehicle>
    <vehicle id="76" type="type1" depart="76.00">
        <route edges="L6-5 D5-9 R9-10 D10-14"/>
    </vehicle>
    <vehicle id="77" type="type1" depart="77.00">
        <route edges="R3-4 D4-8 L8-7 D7-11 L11-10"/>
    </vehicle>
    <vehicle id="78" type="type1" depart="78.00">
        <route edges="R13-14 U14-10 U10-6 L6-5"/>
    </vehicle>
    <vehicle id="79" type="type1" depart="79.00">
        <route edges="L4-3"/>
    </vehicle>
    <vehicle id="80" type="type1" depart="80.00">
        <route edges="D4-8 L8-7 L7-6"/>
    </vehicle>
    <vehicle id="81" type="type1" depart="81.00">
        <route edges="D6-10 D10-14 L14-13 U13-9 R9-10 U10-6"/>
    </vehicle>
    <vehicle id="82" type="type1" depart="82.00">
        <route edges="R14-15 U15-11 U11-7 L7-6 L6-5 D5-9"/>
    </vehicle>
    <vehicle id="83" type="type1" depart="83.00">
        <route edges="D12-16 L16-15 U15-11 U11-7 U7-3 L3-2 D2-6"/>
    </vehicle>
    <vehicle id="84" type="type1" depart="84.00">
        <route edges="U12-8 U8-4 L4-3"/>
    </vehicle>
    <vehicle id="85" type="type1" depart="85.00">
        <route edges="R3-4 D4-8 L8-7 D7-11 D11-15 R15-16"/>
    </vehicle>
    <vehicle id="86" type="type1" depart="86.00">
        <route edges="R11-12 D12-16 L16-15 U15-11 U11-7 R7-8 D8-12"/>
    </vehicle>
    <vehicle id="87" type="type1" depart="87.00">
        <route edges="U10-6 R6-7 D7-11"/>
    </vehicle>
    <vehicle id="88" type="type1" depart="88.00">
        <route edges="R10-11 D11-15 L15-14 L14-13 U13-9"/>
    </vehicle>
    <vehicle id="89" type="type1" depart="89.00">
        <route edges="L3-2 D2-6 D6-10 D10-14 R14-15 R15-16"/>
    </vehicle>
    <vehicle id="90" type="type1" depart="90.00">
        <route edges="L2-1 D1-5 R5-6 R6-7 D7-11 R11-12 U12-8 L8-7"/>
    </vehicle>
    <vehicle id="91" type="type1" depart="91.00">
        <route edges="L14-13 U13-9 R9-10 R10-11 R11-12 D12-16 L16-15"/>
    </vehicle>
    <vehicle id="92" type="type1" depart="92.00">
        <route edges="U12-8 L8-7 L7-6 D6-10 L10-9 U9-5"/>
    </vehicle>
    <vehicle id="93" type="type1" depart="93.00">
        <route edges="L16-15 U15-11 L11-10 L10-9 U9-5"/>
    </vehicle>
    <vehicle id="94" type="type1" depart="94.00">
        <route edges="R11-12 U12-8 L8-7 U7-3"/>
    </vehicle>
    <vehicle id="95" type="type1" depart="95.00">
        <route edges="R7-8 U8-4 L4-3 L3-2"/>
    </vehicle>
    <vehicle id="96" type="type1" depart="96.00">
        <route edges="D2-6 R6-7 R7-8 U8-4"/>
    </vehicle>
    <vehicle id="97" type="type1" depart="97.00">
        <route edges="L6-5"/>
    </vehicle>
    <vehicle id="98" type="type1" depart="98.00">
        <route edges="L16-15"/>
    </vehicle>
    <vehicle id="99" type="type1" depart="99.00">
        <route edges="U15-11 L11-10 L10-9 U9-5"/>
    </vehicle>
    <vehicle id="100" type="type1" depart="100.00">
        <route edges="L6-5 U5-1 R1-2 R2-3 D3-7"/>
    </vehicle>
    <vehicle id="flow1.2" type="type1" depart="100.00">
        <route edges="R13-14 U14-10 U10-6 R6-7 R7-8 U8-4"/>
    </vehicle>
    <vehicle id="flow2.2" type="type1" depart="100.00">
        <route edges="R1-2 R2-3 D3-7 R7-8 D8-12 D12-16"/>
    </vehicle>
    <vehicle id="101" type="type1" depart="101.00">
        <route edges="U10-6 R6-7 D7-11 D11-15 R15-16"/>
    </vehicle>
    <vehicle id="102" type="type1" depart="102.00">
        <route edges="R7-8 D8-12 L12-11 L11-10"/>
    </vehicle>
    <vehicle id="103" type="type1" depart="103.00">
        <route edges="R2-3 D3-7 L7-6 L6-5 U5-1 R1-2"/>
    </vehicle>
    <vehicle id="104" type="type1" depart="104.00">
        <route edges="U15-11 U11-7 U7-3 L3-2 D2-6"/>
    </vehicle>
    <vehicle id="105" type="type1" depart="105.00">
        <route edges="U11-7 L7-6 L6-5 D5-9 D9-13 R13-14 U14-10"/>
    </vehicle>
    <vehicle id="106" type="type1" depart="106.00">
        <route edges="L6-5 U5-1 R1-2 R2-3 R3-4 D4-8"/>
    </vehicle>
    <vehicle id="107" type="type1" depart="107.00">
        <route edges="R14-15 U15-11 L11-10 U10-6 R6-7"/>
    </vehicle>
    <vehicle id="108" type="type1" depart="108.00">
        <route edges="D4-8 L8-7 D7-11 D11-15 R15-16"/>
    </vehicle>
    <vehicle id="109" type="type1" depart="109.00">
        <route edges="R11-12 D12-16 L16-15 U15-11 U11-7"/>
    </vehicle>
    <vehicle id="110" type="type1" depart="110.00">
        <route edges="D2-6 R6-7 R7-8 U8-4 L4-3"/>
    </vehicle>
    <vehicle id="111" type="type1" depart="111.00">
        <route edges="R13-14 U14-10 U10-6"/>
    </vehicle>
    <vehicle id="112" type="type1" depart="112.00">
        <route edges="L16-15 U15-11 U11-7 L7-6 U6-2 R2-3"/>
    </vehicle>
    <vehicle id="113" type="type1" depart="113.00">
        <route edges="R15-16 U16-12 U12-8 L8-7 U7-3 L3-2 L2-1 D1-5"/>
    </vehicle>
    <vehicle id="114" type="type1" depart="114.00">
        <route edges="D5-9 R9-10 U10-6 U6-2 L2-1"/>
    </vehicle>
    <vehicle id="115" type="type1" depart="115.00">
        <route edges="D3-7 R7-8 U8-4 L4-3 L3-2"/>
    </vehicle>
    <vehicle id="116" type="type1" depart="116.00">
        <route edges="U11-7 L7-6 D6-10 L10-9 U9-5"/>
    </vehicle>
    <vehicle id="117" type="type1" depart="117.00">
        <route edges="L4-3 D3-7 D7-11 D11-15"/>
    </vehicle>
    <vehicle id="118" type="type1" depart="118.00">
        <route edges="R1-2 D2-6 R6-7 U7-3 L3-2"/>
    </vehicle>
    <vehicle id="119" type="type1" depart="119.00">
        <route edges="D5-9 R9-10 D10-14 R14-15"/>
    </vehicle>
    <vehicle id="120" type="type1" depart="120.00">
        <route edges="R14-15 U15-11 R11-12 D12-16 L16-15 L15-14"/>
    </vehicle>
    <vehicle id="121" type="type1" depart="121.00">
        <route edges="R3-4 D4-8 L8-7 D7-11 D11-15"/>
    </vehicle>
    <vehicle id="122" type="type1" depart="122.00">
        <route edges="D9-13 R13-14 U14-10 L10-9 U9-5 R5-6"/>
    </vehicle>
    <vehicle id="123" type="type1" depart="123.00">
        <route edges="U12-8 L8-7 U7-3 R3-4 D4-8"/>
    </vehicle>
    <vehicle id="124" type="type1" depart="124.00">
        <route edges="D5-9 R9-10 U10-6 R6-7 R7-8"/>
    </vehicle>
    <vehicle id="125" type="type1" depart="125.00">
        <route edges="D6-10 R10-11 R11-12"/>
    </vehicle>
    <vehicle id="126" type="type1" depart="126.00">
        <route edges="U16-12 U12-8 L8-7 L7-6 L6-5 D5-9"/>
    </vehicle>
    <vehicle id="127" type="type1" depart="127.00">
        <route edges="U11-7 L7-6 L6-5 D5-9 D9-13"/>
    </vehicle>
    <vehicle id="128" type="type1" depart="128.00">
        <route edges="L7-6 D6-10 D10-14 L14-13"/>
    </vehicle>
    <vehicle id="129" type="type1" depart="129.00">
        <route edges="R11-12 D12-16 L16-15 U15-11 L11-10 L10-9"/>
    </vehicle>
    <vehicle id="130" type="type1" depart="130.00">
        <route edges="D4-8 L8-7 D7-11 D11-15 R15-16"/>
    </vehicle>
    <vehicle id="131" type="type1" depart="131.00">
        <route edges="R10-11 D11-15 L15-14 U14-10"/>
    </vehicle>
    <vehicle id="132" type="type1" depart="132.00">
        <route edges="R5-6 R6-7 U7-3 L3-2 D2-6"/>
    </vehicle>
    <vehicle id="133" type="type1" depart="133.00">
        <route edges="R2-3 D3-7"/>
    </vehicle>
    <vehicle id="134" type="type1" depart="134.00">
        <route edges="R15-16 U16-12 L12-11 U11-7 R7-8 D8-12 D12-16 L16-15"/>
    </vehicle>
    <vehicle id="135" type="type1" depart="135.00">
        <route edges="D9-13 R13-14 U14-10"/>
    </vehicle>
    <vehicle id="136" type="type1" depart="136.00">
        <route edges="U7-3 L3-2 D2-6 L6-5 D5-9 D9-13"/>
    </vehicle>
    <vehicle id="137" type="type1" depart="137.00">
        <route edges="U5-1 R1-2 D2-6 L6-5 D5-9"/>
    </vehicle>
    <vehicle id="138" type="type1" depart="138.00">
        <route edges="R3-4 D4-8 D8-12 L12-11"/>
    </vehicle>
    <vehicle id="139" type="type1" depart="139.00">
        <route edges="R1-2 D2-6 L6-5 D5-9 D9-13 R13-14"/>
    </vehicle>
    <vehicle id="140" type="type1" depart="140.00">
        <route edges="U15-11 U11-7 U7-3"/>
    </vehicle>
    <vehicle id="141" type="type1" depart="141.00">
        <route edges="R3-4 D4-8 L8-7 L7-6 L6-5 D5-9"/>
    </vehicle>
    <vehicle id="142" type="type1" depart="142.00">
        <route edges="D5-9 D9-13"/>
    </vehicle>
    <vehicle id="143" type="type1" depart="143.00">
        <route edges="L7-6 D6-10 R10-11 R11-12 U12-8"/>
    </vehicle>
    <vehicle id="144" type="type1" depart="144.00">
        <route edges="L6-5 D5-9 R9-10 D10-14 R14-15 R15-16 U16-12 L12-11"/>
    </vehicle>
    <vehicle id="145" type="type1" depart="145.00">
        <route edges="U8-4 L4-3 D3-7 D7-11 L11-10"/>
    </vehicle>
    <vehicle id="146" type="type1" depart="146.00">
        <route edges="L7-6 D6-10 L10-9"/>
    </vehicle>
    <vehicle id="147" type="type1" depart="147.00">
        <route edges="D2-6 L6-5 D5-9 D9-13 R13-14 U14-10"/>
    </vehicle>
    <vehicle id="148" type="type1" depart="148.00">
        <route edges="R7-8 D8-12 L12-11 L11-10 L10-9 D9-13"/>
    </vehicle>
    <vehicle id="149" type="type1" depart="149.00">
        <route edges="R11-12 U12-8 L8-7 D7-11 D11-15 R15-16"/>
    </vehicle>
    <vehicle id="150" type="type1" depart="150.00">
        <route edges="R15-16 U16-12 L12-11 L11-10 L10-9 D9-13 R13-14"/>
    </vehicle>
    <vehicle id="flow1.3" type="type1" depart="150.00">
        <route edges="R13-14 U14-10 U10-6 R6-7 R7-8 U8-4"/>
    </vehicle>
    <vehicle id="flow2.3" type="type1" depart="150.00">
        <route edges="R1-2 R2-3 D3-7 R7-8 D8-12 D12-16"/>
    </vehicle>
    <vehicle id="151" type="type1" depart="151.00">
        <route edges="R11-12 D12-16 L16-15 U15-11 L11-10 U10-6 R6-7"/>
    </vehicle>
    <vehicle id="152" type="type1" depart="152.00">
        <route edges="D7-11 D11-15 L15-14"/>
    </vehicle>
    <vehicle id="153" type="type1" depart="153.00">
        <route edges="U13-9 U9-5 U5-1"/>
    </vehicle>
    <vehicle id="154" type="type1" depart="154.00">
        <route edges="L12-11 L11-10 L10-9 U9-5 U5-1"/>
    </vehicle>
    <vehicle id="155" type="type1" depart="155.00">
        <route edges="U5-1 R1-2 D2-6 L6-5 D5-9 R9-10"/>
    </vehicle>
    <vehicle id="156" type="type1" depart="156.00">
        <route edges="D6-10 R10-11 U11-7 U7-3 L3-2"/>
    </vehicle>
    <vehicle id="157" type="type1" depart="157.00">
        <route edges="U15-11 R11-12 U12-8"/>
    </vehicle>
    <vehicle id="158" type="type1" depart="158.00">
        <route edges="D4-8 L8-7 L7-6 D6-10 L10-9 U9-5"/>
    </vehicle>
    <vehicle id="159" type="type1" depart="159.00">
        <route edges="U7-3 L3-2 D2-6 R6-7 D7-11 R11-12 U12-8"/>
    </vehicle>
    <vehicle id="160" type="type1" depart="160.00">
        <route edges="U15-11 U11-7 R7-8 U8-4 L4-3"/>
    </vehicle>
    <vehicle id="161" type="type1" depart="161.00">
        <route edges="U13-9 R9-10 D10-14 R14-15 U15-11"/>
    </vehicle>
    <vehicle id="162" type="type1" depart="162.00">
        <route edges="R15-16 U16-12 L12-11 L11-10 U10-6"/>
    </vehicle>
    <vehicle id="163" type="type1" depart="163.00">
        <route edges="L7-6 L6-5 D5-9 R9-10 U10-6 R6-7"/>
    </vehicle>
    <vehicle id="164" type="type1" depart="164.00">
        <route edges="R9-10 R10-11 U11-7 L7-6"/>
    </vehicle>
    <vehicle id="165" type="type1" depart="165.00">
        <route edges="L8-7 D7-11 D11-15 L15-14 L14-13 U13-9"/>
    </vehicle>
    <vehicle id="166" type="type1" depart="166.00">
        <route edges="L3-2 D2-6 D6-10"/>
    </vehicle>
    <vehicle id="167" type="type1" depart="167.00">
        <route edges="D3-7"/>
    </vehicle>
    <vehicle id="168" type="type1" depart="168.00">
        <route edges="U5-1 R1-2 D2-6 R6-7 U7-3"/>
    </vehicle>
    <vehicle id="169" type="type1" depart="169.00">
        <route edges="L8-7 L7-6 U6-2 R2-3 D3-7"/>
    </vehicle>
    <vehicle id="170" type="type1" depart="170.00">
        <route edges="L16-15 U15-11 U11-7 R7-8 D8-12 L12-11"/>
    </vehicle>
    <vehicle id="171" type="type1" depart="171.00">
        <route edges="D6-10 L10-9 U9-5 R5-6 U6-2 R2-3 D3-7"/>
    </vehicle>
    <vehicle id="172" type="type1" depart="172.00">
        <route edges="R1-2 D2-6 L6-5 D5-9 R9-10 U10-6"/>
    </vehicle>
    <vehicle id="173" type="type1" depart="173.00">
        <route edges="R13-14 U14-10 L10-9 U9-5"/>
    </vehicle>
    <vehicle id="174" type="type1" depart="174.00">
        <route edges="R6-7 D7-11 L11-10 L10-9 U9-5 U5-1 R1-2"/>
    </vehicle>
    <vehicle id="175" type="type1" depart="175.00">
        <route edges="R13-14 U14-10 R10-11 R11-12"/>
    </vehicle>
    <vehicle id="176" type="type1" depart="176.00">
        <route edges="U9-5 R5-6 R6-7 D7-11 R11-12 U12-8 L8-7"/>
    </vehicle>
    <vehicle id="177" type="type1" depart="177.00">
        <route edges="R6-7 U7-3 L3-2"/>
    </vehicle>
    <vehicle id="178" type="type1" depart="178.00">
        <route edges="D2-6 R6-7 R7-8 D8-12 D12-16 L16-15"/>
    </vehicle>
    <vehicle id="179" type="type1" depart="179.00">
        <route edges="R9-10 R10-11 R11-12 D12-16 L16-15"/>
    </vehicle>
    <vehicle id="180" type="type1" depart="180.00">
        <route edges="D4-8 L8-7"/>
    </vehicle>
    <vehicle id="181" type="type1" depart="181.00">
        <route edges="L10-9 D9-13 R13-14 U14-10 R10-11 D11-15 L15-14"/>
    </vehicle>
    <vehicle id="182" type="type1" depart="182.00">
        <route edges="L2-1 D1-5 R5-6 U6-2 R2-3 D3-7"/>
    </vehicle>
    <vehicle id="183" type="type1" depart="183.00">
        <route edges="L16-15 U15-11 U11-7 U7-3"/>
    </vehicle>
    <vehicle id="184" type="type1" depart="184.00">
        <route edges="D7-11"/>
    </vehicle>
    <vehicle id="185" type="type1" depart="185.00">
        <route edges="U5-1 R1-2 D2-6 L6-5 D5-9 R9-10 U10-6"/>
    </vehicle>
    <vehicle id="186" type="type1" depart="186.00">
        <route edges="D2-6 D6-10 L10-9 U9-5"/>
    </vehicle>
    <vehicle id="187" type="type1" depart="187.00">
        <route edges="L4-3 D3-7 R7-8"/>
    </vehicle>
    <vehicle id="188" type="type1" depart="188.00">
        <route edges="R10-11 U11-7 L7-6 L6-5"/>
    </vehicle>
    <vehicle id="189" type="type1" depart="189.00">
        <route edges="U13-9 R9-10 R10-11 R11-12 D12-16 L16-15"/>
    </vehicle>
    <vehicle id="190" type="type1" depart="190.00">
        <route edges="D11-15 L15-14 U14-10 L10-9 U9-5 R5-6 D6-10"/>
    </vehicle>
    <vehicle id="191" type="type1" depart="191.00">
        <route edges="R9-10 U10-6 L6-5 D5-9 D9-13"/>
    </vehicle>
    <vehicle id="192" type="type1" depart="192.00">
        <route edges="U11-7"/>
    </vehicle>
    <vehicle id="193" type="type1" depart="193.00">
        <route edges="D12-16 L16-15 U15-11 U11-7 R7-8"/>
    </vehicle>
    <vehicle id="194" type="type1" depart="194.00">
        <route edges="L10-9"/>
    </vehicle>
    <vehicle id="195" type="type1" depart="195.00">
        <route edges="R2-3 D3-7 L7-6 D6-10 L10-9 U9-5"/>
    </vehicle>
    <vehicle id="196" type="type1" depart="196.00">
        <route edges="L8-7 D7-11 R11-12 U12-8 U8-4 L4-3"/>
    </vehicle>
    <vehicle id="197" type="type1" depart="197.00">
        <route edges="L15-14 U14-10 L10-9 U9-5"/>
    </vehicle>
    <vehicle id="198" type="type1" depart="198.00">
        <route edges="D9-13 R13-14 U14-10 R10-11 U11-7"/>
    </vehicle>
    <vehicle id="199" type="type1" depart="199.00">
        <route edges="U7-3 L3-2 D2-6 D6-10 D10-14 R14-15 R15-16"/>
    </vehicle>
    <vehicle id="200" type="type1" depart="200.00">
        <route edges="L14-13 U13-9 R9-10 D10-14"/>
    </vehicle>
    <vehicle id="flow1.4" type="type1" depart="200.00">
        <route edges="R13-14 U14-10 U10-6 R6-7 R7-8 U8-4"/>
    </vehicle>
    <vehicle id="flow2.4" type="type1" depart="200.00">
        <route edges="R1-2 R2-3 D3-7 R7-8 D8-12 D12-16"/>
    </vehicle>
    <vehicle id="201" type="type1" depart="201.00">
        <route edges="D5-9 R9-10 R10-11 U11-7 L7-6"/>
    </vehicle>
    <vehicle id="202" type="type1" depart="202.00">
        <route edges="R13-14 U14-10 R10-11 D11-15 L15-14 L14-13 U13-9"/>
    </vehicle>
    <vehicle id="203" type="type1" depart="203.00">
        <route edges="D10-14 L14-13 U13-9 R9-10 U10-6 U6-2 R2-3 D3-7"/>
    </vehicle>
    <vehicle id="204" type="type1" depart="204.00">
        <route edges="U8-4"/>
    </vehicle>
    <vehicle id="205" type="type1" depart="205.00">
        <route edges="L8-7 D7-11 D11-15"/>
    </vehicle>
    <vehicle id="206" type="type1" depart="206.00">
        <route edges="D8-12 L12-11 U11-7 L7-6 U6-2"/>
    </vehicle>
    <vehicle id="207" type="type1" depart="207.00">
        <route edges="U12-8 L8-7 L7-6 L6-5"/>
    </vehicle>
    <vehicle id="208" type="type1" depart="208.00">
        <route edges="L15-14 U14-10 L10-9 U9-5 U5-1"/>
    </vehicle>
    <vehicle id="209" type="type1" depart="209.00">
        <route edges="L4-3 D3-7 D7-11 D11-15 R15-16"/>
    </vehicle>
    <vehicle id="210" type="type1" depart="210.00">
        <route edges="R14-15 U15-11 L11-10 L10-9 U9-5 U5-1"/>
    </vehicle>
    <vehicle id="211" type="type1" depart="211.00">
        <route edges="U5-1 R1-2 R2-3 D3-7 R7-8 D8-12 D12-16"/>
    </vehicle>
    <vehicle id="212" type="type1" depart="212.00">
        <route edges="L12-11 D11-15"/>
    </vehicle>
    <vehicle id="213" type="type1" depart="213.00">
        <route edges="L15-14 U14-10 R10-11 R11-12 U12-8 L8-7"/>
    </vehicle>
    <vehicle id="214" type="type1" depart="214.00">
        <route edges="L8-7 U7-3 L3-2 L2-1 D1-5"/>
    </vehicle>
    <vehicle id="215" type="type1" depart="215.00">
        <route edges="D3-7 L7-6 D6-10"/>
    </vehicle>
    <vehicle id="216" type="type1" depart="216.00">
        <route edges="U10-6 R6-7 D7-11"/>
    </vehicle>
    <vehicle id="217" type="type1" depart="217.00">
        <route edges="L3-2 L2-1 D1-5 R5-6 U6-2"/>
    </vehicle>
    <vehicle id="218" type="type1" depart="218.00">
        <route edges="L10-9 D9-13 R13-14 R14-15 R15-16 U16-12 L12-11"/>
    </vehicle>
    <vehicle id="219" type="type1" depart="219.00">
        <route edges="R3-4 D4-8 L8-7 D7-11 R11-12 U12-8"/>
    </vehicle>
    <vehicle id="220" type="type1" depart="220.00">
        <route edges="D4-8 D8-12 D12-16 L16-15"/>
    </vehicle>
    <vehicle id="221" type="type1" depart="221.00">
        <route edges="R6-7 D7-11 L11-10 U10-6 U6-2 R2-3"/>
    </vehicle>
    <vehicle id="222" type="type1" depart="222.00">
        <route edges="U16-12 U12-8 L8-7 U7-3 L3-2"/>
    </vehicle>
    <vehicle id="223" type="type1" depart="223.00">
        <route edges="R2-3 D3-7 D7-11 R11-12"/>
    </vehicle>
    <vehicle id="224" type="type1" depart="224.00">
        <route edges="D4-8 L8-7 L7-6 U6-2 R2-3 D3-7"/>
    </vehicle>
    <vehicle id="225" type="type1" depart="225.00">
        <route edges="D3-7 D7-11 D11-15 R15-16"/>
    </vehicle>
    <vehicle id="226" type="type1" depart="226.00">
        <route edges="D8-12 D12-16 L16-15"/>
    </vehicle>
    <vehicle id="227" type="type1" depart="227.00">
        <route edges="D5-9 R9-10 R10-11 D11-15 L15-14"/>
    </vehicle>
    <vehicle id="228" type="type1" depart="228.00">
        <route edges="D12-16 L16-15 U15-11 R11-12 U12-8 L8-7"/>
    </vehicle>
    <vehicle id="229" type="type1" depart="229.00">
        <route edges="D1-5 R5-6 R6-7 R7-8 D8-12 D12-16"/>
    </vehicle>
    <vehicle id="230" type="type1" depart="230.00">
        <route edges="U15-11 L11-10 L10-9 U9-5 U5-1 R1-2"/>
    </vehicle>
    <vehicle id="231" type="type1" depart="231.00">
        <route edges="U6-2 R2-3 D3-7 R7-8 U8-4 L4-3"/>
    </vehicle>
    <vehicle id="232" type="type1" depart="232.00">
        <route edges="R2-3 D3-7 D7-11 D11-15 L15-14"/>
    </vehicle>
    <vehicle id="233" type="type1" depart="233.00">
        <route edges="R14-15 U15-11"/>
    </vehicle>
    <vehicle id="234" type="type1" depart="234.00">
        <route edges="L8-7 L7-6 L6-5 D5-9 D9-13"/>
    </vehicle>
    <vehicle id="235" type="type1" depart="235.00">
        <route edges="D9-13 R13-14 U14-10 U10-6 R6-7 R7-8"/>
    </vehicle>
    <vehicle id="236" type="type1" depart="236.00">
        <route edges="U14-10 R10-11 D11-15 R15-16 U16-12 L12-11"/>
    </vehicle>
    <vehicle id="237" type="type1" depart="237.00">
        <route edges="D3-7 L7-6 D6-10 L10-9 U9-5 R5-6"/>
    </vehicle>