<?xml version="1.0" encoding="UTF-8"?>

<!--

-->

<net version="0.13">

    <location netOffset="-100.00,-100.00" convBoundary="0.00,0.00,1400.00,1400.00" origBoundary="100.00,100.00,1500.00,1500.00" projParameter="!"/>

    <edge id=":n1_0" function="internal">
        <lane id=":n1_0_0" index="0" speed="40.00" length="7.90" shape="3.25,1401.65 1.11,1401.34 -0.42,1400.43 -1.34,1398.89 -1.65,1396.75"/>
    </edge>
    <edge id=":n1_1" function="internal">
        <lane id=":n1_1_0" index="0" speed="40.00" length="2.58" shape="1.65,1396.75 1.75,1397.45 2.05,1397.95 2.55,1398.25 3.25,1398.35"/>
    </edge>
    <edge id=":n10_0" function="internal">
        <lane id=":n10_0_0" index="0" speed="40.00" length="5.00" shape="398.35,404.75 398.16,403.39 397.58,402.42 396.61,401.84 395.25,401.65"/>
    </edge>
    <edge id=":n10_1" function="internal">
        <lane id=":n10_1_0" index="0" speed="40.00" length="9.50" shape="398.35,404.75 398.35,395.25"/>
    </edge>
    <edge id=":n10_2" function="internal">
        <lane id=":n10_2_0" index="0" speed="40.00" length="7.14" shape="398.35,404.75 398.75,401.95 399.95,399.95 401.65,398.93"/>
    </edge>
    <edge id=":n10_12" function="internal">
        <lane id=":n10_12_0" index="0" speed="40.00" length="3.18" shape="401.65,398.93 401.95,398.75 404.75,398.35"/>
    </edge>
    <edge id=":n10_3" function="internal">
        <lane id=":n10_3_0" index="0" speed="40.00" length="5.00" shape="404.75,401.65 403.39,401.84 402.43,402.42 401.84,403.39 401.65,404.75"/>
    </edge>
    <edge id=":n10_4" function="internal">
        <lane id=":n10_4_0" index="0" speed="40.00" length="9.50" shape="404.75,401.65 395.25,401.65"/>
    </edge>
    <edge id=":n10_5" function="internal">
        <lane id=":n10_5_0" index="0" speed="40.00" length="10.32" shape="404.75,401.65 401.95,401.25 399.95,400.05 398.75,398.05 398.35,395.25"/>
    </edge>
    <edge id=":n10_6" function="internal">
        <lane id=":n10_6_0" index="0" speed="40.00" length="5.00" shape="401.65,395.25 401.84,396.61 402.42,397.58 403.39,398.16 404.75,398.35"/>
    </edge>
    <edge id=":n10_7" function="internal">
        <lane id=":n10_7_0" index="0" speed="40.00" length="9.50" shape="401.65,395.25 401.65,404.75"/>
    </edge>
    <edge id=":n10_8" function="internal">
        <lane id=":n10_8_0" index="0" speed="40.00" length="7.14" shape="401.65,395.25 401.25,398.05 400.05,400.05 398.35,401.07"/>
    </edge>
    <edge id=":n10_13" function="internal">
        <lane id=":n10_13_0" index="0" speed="40.00" length="3.18" shape="398.35,401.07 398.05,401.25 395.25,401.65"/>
    </edge>
    <edge id=":n10_9" function="internal">
        <lane id=":n10_9_0" index="0" speed="40.00" length="5.00" shape="395.25,398.35 396.61,398.16 397.58,397.58 398.16,396.61 398.35,395.25"/>
    </edge>
    <edge id=":n10_10" function="internal">
        <lane id=":n10_10_0" index="0" speed="40.00" length="9.50" shape="395.25,398.35 404.75,398.35"/>
    </edge>
    <edge id=":n10_11" function="internal">
        <lane id=":n10_11_0" index="0" speed="40.00" length="10.32" shape="395.25,398.35 398.05,398.75 400.05,399.95 401.25,401.95 401.65,404.75"/>
    </edge>
    <edge id=":n11_0" function="internal">
        <lane id=":n11_0_0" index="0" speed="40.00" length="5.00" shape="898.35,404.75 898.16,403.39 897.58,402.43 896.61,401.84 895.25,401.65"/>
    </edge>
    <edge id=":n11_1" function="internal">
        <lane id=":n11_1_0" index="0" speed="40.00" length="9.50" shape="898.35,404.75 898.35,395.25"/>
    </edge>
    <edge id=":n11_2" function="internal">
        <lane id=":n11_2_0" index="0" speed="40.00" length="7.14" shape="898.35,404.75 898.75,401.95 899.95,399.95 901.65,398.93"/>
    </edge>
    <edge id=":n11_12" function="internal">
        <lane id=":n11_12_0" index="0" speed="40.00" length="3.18" shape="901.65,398.93 901.95,398.75 904.75,398.35"/>
    </edge>
    <edge id=":n11_3" function="internal">
        <lane id=":n11_3_0" index="0" speed="40.00" length="5.00" shape="904.75,401.65 903.39,401.84 902.43,402.42 901.84,403.39 901.65,404.75"/>
    </edge>
    <edge id=":n11_4" function="internal">
        <lane id=":n11_4_0" index="0" speed="40.00" length="9.50" shape="904.75,401.65 895.25,401.65"/>
    </edge>
    <edge id=":n11_5" function="internal">
        <lane id=":n11_5_0" index="0" speed="40.00" length="10.32" shape="904.75,401.65 901.95,401.25 899.95,400.05 898.75,398.05 898.35,395.25"/>
    </edge>
    <edge id=":n11_6" function="internal">
        <lane id=":n11_6_0" index="0" speed="40.00" length="5.00" shape="901.65,395.25 901.84,396.61 902.42,397.58 903.39,398.16 904.75,398.35"/>
    </edge>
    <edge id=":n11_7" function="internal">
        <lane id=":n11_7_0" index="0" speed="40.00" length="9.50" shape="901.65,395.25 901.65,404.75"/>
    </edge>
    <edge id=":n11_8" function="internal">
        <lane id=":n11_8_0" index="0" speed="40.00" length="7.14" shape="901.65,395.25 901.25,398.05 900.05,400.05 898.35,401.07"/>
    </edge>
    <edge id=":n11_13" function="internal">
        <lane id=":n11_13_0" index="0" speed="40.00" length="3.18" shape="898.35,401.07 898.05,401.25 895.25,401.65"/>
    </edge>
    <edge id=":n11_9" function="internal">
        <lane id=":n11_9_0" index="0" speed="40.00" length="5.00" shape="895.25,398.35 896.61,398.16 897.57,397.58 898.16,396.61 898.35,395.25"/>
    </edge>
    <edge id=":n11_10" function="internal">
        <lane id=":n11_10_0" index="0" speed="40.00" length="9.50" shape="895.25,398.35 904.75,398.35"/>
    </edge>
    <edge id=":n11_11" function="internal">
        <lane id=":n11_11_0" index="0" speed="40.00" length="10.32" shape="895.25,398.35 898.05,398.75 900.05,399.95 901.25,401.95 901.65,404.75"/>
    </edge>
    <edge id=":n12_0" function="internal">
        <lane id=":n12_0_0" index="0" speed="40.00" length="5.00" shape="1398.35,404.75 1398.16,403.39 1397.57,402.43 1396.61,401.84 1395.25,401.65"/>
    </edge>
    <edge id=":n12_1" function="internal">
        <lane id=":n12_1_0" index="0" speed="40.00" length="9.50" shape="1398.35,404.75 1398.35,395.25"/>
    </edge>
    <edge id=":n12_2" function="internal">
        <lane id=":n12_2_0" index="0" speed="40.00" length="9.50" shape="1401.65,395.25 1401.65,404.75"/>
    </edge>
    <edge id=":n12_3" function="internal">
        <lane id=":n12_3_0" index="0" speed="40.00" length="7.14" shape="1401.65,395.25 1401.25,398.05 1400.05,400.05 1398.35,401.07"/>
    </edge>
    <edge id=":n12_6" function="internal">
        <lane id=":n12_6_0" index="0" speed="40.00" length="3.18" shape="1398.35,401.07 1398.05,401.25 1395.25,401.65"/>
    </edge>
    <edge id=":n12_4" function="internal">
        <lane id=":n12_4_0" index="0" speed="40.00" length="5.00" shape="1395.25,398.35 1396.61,398.16 1397.57,397.58 1398.16,396.61 1398.35,395.25"/>
    </edge>
    <edge id=":n12_5" function="internal">
        <lane id=":n12_5_0" index="0" speed="40.00" length="10.32" shape="1395.25,398.35 1398.05,398.75 1400.05,399.95 1401.25,401.95 1401.65,404.75"/>
    </edge>
    <edge id=":n13_0" function="internal">
        <lane id=":n13_0_0" index="0" speed="40.00" length="7.90" shape="-1.65,3.25 -1.34,1.11 -0.42,-0.42 1.11,-1.34 3.25,-1.65"/>
    </edge>
    <edge id=":n13_1" function="internal">
        <lane id=":n13_1_0" index="0" speed="40.00" length="2.58" shape="3.25,1.65 2.55,1.75 2.05,2.05 1.75,2.55 1.65,3.25"/>
    </edge>
    <edge id=":n14_0" function="internal">
        <lane id=":n14_0_0" index="0" speed="40.00" length="5.00" shape="398.35,4.75 398.16,3.39 397.58,2.42 396.61,1.84 395.25,1.65"/>
    </edge>
    <edge id=":n14_1" function="internal">
        <lane id=":n14_1_0" index="0" speed="40.00" length="10.32" shape="398.35,4.75 398.75,1.95 399.95,-0.05 401.95,-1.25 404.75,-1.65"/>
    </edge>
    <edge id=":n14_2" function="internal">
        <lane id=":n14_2_0" index="0" speed="40.00" length="5.00" shape="404.75,1.65 403.39,1.84 402.42,2.42 401.84,3.39 401.65,4.75"/>
    </edge>
    <edge id=":n14_3" function="internal">
        <lane id=":n14_3_0" index="0" speed="40.00" length="9.50" shape="404.75,1.65 395.25,1.65"/>
    </edge>
    <edge id=":n14_4" function="internal">
        <lane id=":n14_4_0" index="0" speed="40.00" length="9.50" shape="395.25,-1.65 404.75,-1.65"/>
    </edge>
    <edge id=":n14_5" function="internal">
        <lane id=":n14_5_0" index="0" speed="40.00" length="7.14" shape="395.25,-1.65 398.05,-1.25 400.05,-0.05 401.07,1.65"/>
    </edge>
    <edge id=":n14_6" function="internal">
        <lane id=":n14_6_0" index="0" speed="40.00" length="3.18" shape="401.07,1.65 401.25,1.95 401.65,4.75"/>
    </edge>
    <edge id=":n15_0" function="internal">
        <lane id=":n15_0_0" index="0" speed="40.00" length="5.00" shape="898.35,4.75 898.16,3.39 897.58,2.42 896.61,1.84 895.25,1.65"/>
    </edge>
    <edge id=":n15_1" function="internal">
        <lane id=":n15_1_0" index="0" speed="40.00" length="10.32" shape="898.35,4.75 898.75,1.95 899.95,-0.05 901.95,-1.25 904.75,-1.65"/>
    </edge>
    <edge id=":n15_2" function="internal">
        <lane id=":n15_2_0" index="0" speed="40.00" length="5.00" shape="904.75,1.65 903.39,1.84 902.43,2.42 901.84,3.39 901.65,4.75"/>
    </edge>
    <edge id=":n15_3" function="internal">
        <lane id=":n15_3_0" index="0" speed="40.00" length="9.50" shape="904.75,1.65 895.25,1.65"/>
    </edge>
    <edge id=":n15_4" function="internal">
        <lane id=":n15_4_0" index="0" speed="40.00" length="9.50" shape="895.25,-1.65 904.75,-1.65"/>
    </edge>
    <edge id=":n15_5" function="internal">
        <lane id=":n15_5_0" index="0" speed="40.00" length="7.14" shape="895.25,-1.65 898.05,-1.25 900.05,-0.05 901.07,1.65"/>
    </edge>
    <edge id=":n15_6" function="internal">
        <lane id=":n15_6_0" index="0" speed="40.00" length="3.18" shape="901.07,1.65 901.25,1.95 901.65,4.75"/>
    </edge>
    <edge id=":n16_0" function="internal">
        <lane id=":n16_0_0" index="0" speed="40.00" length="2.58" shape="1398.35,3.25 1398.25,2.55 1397.95,2.05 1397.45,1.75 1396.75,1.65"/>
    </edge>
    <edge id=":n16_1" function="internal">
        <lane id=":n16_1_0" index="0" speed="40.00" length="7.90" shape="1396.75,-1.65 1398.89,-1.34 1400.43,-0.43 1401.34,1.11 1401.65,3.25"/>
    </edge>
    <edge id=":n2_0" function="internal">
        <lane id=":n2_0_0" index="0" speed="40.00" length="9.50" shape="404.75,1401.65 395.25,1401.65"/>
    </edge>
    <edge id=":n2_1" function="internal">
        <lane id=":n2_1_0" index="0" speed="40.00" length="7.14" shape="404.75,1401.65 401.95,1401.25 399.95,1400.05 398.93,1398.35"/>
    </edge>
    <edge id=":n2_6" function="internal">
        <lane id=":n2_6_0" index="0" speed="40.00" length="3.18" shape="398.93,1398.35 398.75,1398.05 398.35,1395.25"/>
    </edge>
    <edge id=":n2_2" function="internal">
        <lane id=":n2_2_0" index="0" speed="40.00" length="5.00" shape="401.65,1395.25 401.84,1396.61 402.42,1397.57 403.39,1398.16 404.75,1398.35"/>
    </edge>
    <edge id=":n2_3" function="internal">
        <lane id=":n2_3_0" index="0" speed="40.00" length="10.32" shape="401.65,1395.25 401.25,1398.05 400.05,1400.05 398.05,1401.25 395.25,1401.65"/>
    </edge>
    <edge id=":n2_4" function="internal">
        <lane id=":n2_4_0" index="0" speed="40.00" length="5.00" shape="395.25,1398.35 396.61,1398.16 397.58,1397.57 398.16,1396.61 398.35,1395.25"/>
    </edge>
    <edge id=":n2_5" function="internal">
        <lane id=":n2_5_0" index="0" speed="40.00" length="9.50" shape="395.25,1398.35 404.75,1398.35"/>
    </edge>
    <edge id=":n3_0" function="internal">
        <lane id=":n3_0_0" index="0" speed="40.00" length="9.50" shape="904.75,1401.65 895.25,1401.65"/>
    </edge>
    <edge id=":n3_1" function="internal">
        <lane id=":n3_1_0" index="0" speed="40.00" length="7.14" shape="904.75,1401.65 901.95,1401.25 899.95,1400.05 898.93,1398.35"/>
    </edge>
    <edge id=":n3_6" function="internal">
        <lane id=":n3_6_0" index="0" speed="40.00" length="3.18" shape="898.93,1398.35 898.75,1398.05 898.35,1395.25"/>
    </edge>
    <edge id=":n3_2" function="internal">
        <lane id=":n3_2_0" index="0" speed="40.00" length="5.00" shape="901.65,1395.25 901.84,1396.61 902.42,1397.57 903.39,1398.16 904.75,1398.35"/>
    </edge>
    <edge id=":n3_3" function="internal">
        <lane id=":n3_3_0" index="0" speed="40.00" length="10.32" shape="901.65,1395.25 901.25,1398.05 900.05,1400.05 898.05,1401.25 895.25,1401.65"/>
    </edge>
    <edge id=":n3_4" function="internal">
        <lane id=":n3_4_0" index="0" speed="40.00" length="5.00" shape="895.25,1398.35 896.61,1398.16 897.57,1397.57 898.16,1396.61 898.35,1395.25"/>
    </edge>
    <edge id=":n3_5" function="internal">
        <lane id=":n3_5_0" index="0" speed="40.00" length="9.50" shape="895.25,1398.35 904.75,1398.35"/>
    </edge>
    <edge id=":n4_0" function="internal">
        <lane id=":n4_0_0" index="0" speed="40.00" length="7.90" shape="1401.65,1396.75 1401.34,1398.89 1400.43,1400.43 1398.89,1401.34 1396.75,1401.65"/>
    </edge>
    <edge id=":n4_1" function="internal">
        <lane id=":n4_1_0" index="0" speed="40.00" length="2.58" shape="1396.75,1398.35 1397.45,1398.25 1397.95,1397.95 1398.25,1397.45 1398.35,1396.75"/>
    </edge>
    <edge id=":n5_0" function="internal">
        <lane id=":n5_0_0" index="0" speed="40.00" length="9.50" shape="-1.65,904.75 -1.65,895.25"/>
    </edge>
    <edge id=":n5_1" function="internal">
        <lane id=":n5_1_0" index="0" speed="40.00" length="7.14" shape="-1.65,904.75 -1.25,901.95 -0.05,899.95 1.65,898.93"/>
    </edge>
    <edge id=":n5_6" function="internal">
        <lane id=":n5_6_0" index="0" speed="40.00" length="3.18" shape="1.65,898.93 1.95,898.75 4.75,898.35"/>
    </edge>
    <edge id=":n5_2" function="internal">
        <lane id=":n5_2_0" index="0" speed="40.00" length="5.00" shape="4.75,901.65 3.39,901.84 2.42,902.42 1.84,903.39 1.65,904.75"/>
    </edge>
    <edge id=":n5_3" function="internal">
        <lane id=":n5_3_0" index="0" speed="40.00" length="10.32" shape="4.75,901.65 1.95,901.25 -0.05,900.05 -1.25,898.05 -1.65,895.25"/>
    </edge>
    <edge id=":n5_4" function="internal">
        <lane id=":n5_4_0" index="0" speed="40.00" length="5.00" shape="1.65,895.25 1.84,896.61 2.42,897.57 3.39,898.16 4.75,898.35"/>
    </edge>
    <edge id=":n5_5" function="internal">
        <lane id=":n5_5_0" index="0" speed="40.00" length="9.50" shape="1.65,895.25 1.65,904.75"/>
    </edge>
    <edge id=":n6_0" function="internal">
        <lane id=":n6_0_0" index="0" speed="40.00" length="5.00" shape="398.35,904.75 398.16,903.39 397.58,902.43 396.61,901.84 395.25,901.65"/>
    </edge>
    <edge id=":n6_1" function="internal">
        <lane id=":n6_1_0" index="0" speed="40.00" length="9.50" shape="398.35,904.75 398.35,895.25"/>
    </edge>
    <edge id=":n6_2" function="internal">
        <lane id=":n6_2_0" index="0" speed="40.00" length="7.14" shape="398.35,904.75 398.75,901.95 399.95,899.95 401.65,898.93"/>
    </edge>
    <edge id=":n6_12" function="internal">
        <lane id=":n6_12_0" index="0" speed="40.00" length="3.18" shape="401.65,898.93 401.95,898.75 404.75,898.35"/>
    </edge>
    <edge id=":n6_3" function="internal">
        <lane id=":n6_3_0" index="0" speed="40.00" length="5.00" shape="404.75,901.65 403.39,901.84 402.43,902.42 401.84,903.39 401.65,904.75"/>
    </edge>
    <edge id=":n6_4" function="internal">
        <lane id=":n6_4_0" index="0" speed="40.00" length="9.50" shape="404.75,901.65 395.25,901.65"/>
    </edge>
    <edge id=":n6_5" function="internal">
        <lane id=":n6_5_0" index="0" speed="40.00" length="10.32" shape="404.75,901.65 401.95,901.25 399.95,900.05 398.75,898.05 398.35,895.25"/>
    </edge>
    <edge id=":n6_6" function="internal">
        <lane id=":n6_6_0" index="0" speed="40.00" length="5.00" shape="401.65,895.25 401.84,896.61 402.42,897.57 403.39,898.16 404.75,898.35"/>
    </edge>
    <edge id=":n6_7" function="internal">
        <lane id=":n6_7_0" index="0" speed="40.00" length="9.50" shape="401.65,895.25 401.65,904.75"/>
    </edge>
    <edge id=":n6_8" function="internal">
        <lane id=":n6_8_0" index="0" speed="40.00" length="7.14" shape="401.65,895.25 401.25,898.05 400.05,900.05 398.35,901.07"/>
    </edge>
    <edge id=":n6_13" function="internal">
        <lane id=":n6_13_0" index="0" speed="40.00" length="3.18" shape="398.35,901.07 398.05,901.25 395.25,901.65"/>
    </edge>
    <edge id=":n6_9" function="internal">
        <lane id=":n6_9_0" index="0" speed="40.00" length="5.00" shape="395.25,898.35 396.61,898.16 397.58,897.58 398.16,896.61 398.35,895.25"/>
    </edge>
    <edge id=":n6_10" function="internal">
        <lane id=":n6_10_0" index="0" speed="40.00" length="9.50" shape="395.25,898.35 404.75,898.35"/>
    </edge>
    <edge id=":n6_11" function="internal">
        <lane id=":n6_11_0" index="0" speed="40.00" length="10.32" shape="395.25,898.35 398.05,898.75 400.05,899.95 401.25,901.95 401.65,904.75"/>
    </edge>
    <edge id=":n7_0" function="internal">
        <lane id=":n7_0_0" index="0" speed="40.00" length="5.00" shape="898.35,904.75 898.16,903.39 897.58,902.43 896.61,901.84 895.25,901.65"/>
    </edge>
    <edge id=":n7_1" function="internal">
        <lane id=":n7_1_0" index="0" speed="40.00" length="9.50" shape="898.35,904.75 898.35,895.25"/>
    </edge>
    <edge id=":n7_2" function="internal">
        <lane id=":n7_2_0" index="0" speed="40.00" length="7.14" shape="898.35,904.75 898.75,901.95 899.95,899.95 901.65,898.93"/>
    </edge>
    <edge id=":n7_12" function="internal">
        <lane id=":n7_12_0" index="0" speed="40.00" length="3.18" shape="901.65,898.93 901.95,898.75 904.75,898.35"/>
    </edge>
    <edge id=":n7_3" function="internal">
        <lane id=":n7_3_0" index="0" speed="40.00" length="5.00" shape="904.75,901.65 903.39,901.84 902.43,902.42 901.84,903.39 901.65,904.75"/>
    </edge>
    <edge id=":n7_4" function="internal">
        <lane id=":n7_4_0" index="0" speed="40.00" length="9.50" shape="904.75,901.65 895.25,901.65"/>
    </edge>
    <edge id=":n7_5" function="internal">
        <lane id=":n7_5_0" index="0" speed="40.00" length="10.32" shape="904.75,901.65 901.95,901.25 899.95,900.05 898.75,898.05 898.35,895.25"/>
    </edge>
    <edge id=":n7_6" function="internal">
        <lane id=":n7_6_0" index="0" speed="40.00" length="5.00" shape="901.65,895.25 901.84,896.61 902.42,897.57 903.39,898.16 904.75,898.35"/>
    </edge>
    <edge id=":n7_7" function="internal">
        <lane id=":n7_7_0" index="0" speed="40.00" length="9.50" shape="901.65,895.25 901.65,904.75"/>
    </edge>
    <edge id=":n7_8" function="internal">
        <lane id=":n7_8_0" index="0" speed="40.00" length="7.14" shape="901.65,895.25 901.25,898.05 900.05,900.05 898.35,901.07"/>
    </edge>
    <edge id=":n7_13" function="internal">
        <lane id=":n7_13_0" index="0" speed="40.00" length="3.18" shape="898.35,901.07 898.05,901.25 895.25,901.65"/>
    </edge>
    <edge id=":n7_9" function="internal">
        <lane id=":n7_9_0" index="0" speed="40.00" length="5.00" shape="895.25,898.35 896.61,898.16 897.57,897.58 898.16,896.61 898.35,895.25"/>
    </edge>
    <edge id=":n7_10" function="internal">
        <lane id=":n7_10_0" index="0" speed="40.00" length="9.50" shape="895.25,898.35 904.75,898.35"/>
    </edge>
    <edge id=":n7_11" function="internal">
        <lane id=":n7_11_0" index="0" speed="40.00" length="10.32" shape="895.25,898.35 898.05,898.75 900.05,899.95 901.25,901.95 901.65,904.75"/>
    </edge>
    <edge id=":n8_0" function="internal">
        <lane id=":n8_0_0" index="0" speed="40.00" length="5.00" shape="1398.35,904.75 1398.16,903.39 1397.57,902.43 1396.61,901.84 1395.25,901.65"/>
    </edge>
    <edge id=":n8_1" function="internal">
        <lane id=":n8_1_0" index="0" speed="40.00" length="9.50" shape="1398.35,904.75 1398.35,895.25"/>
    </edge>
    <edge id=":n8_2" function="internal">
        <lane id=":n8_2_0" index="0" speed="40.00" length="9.50" shape="1401.65,895.25 1401.65,904.75"/>
    </edge>
    <edge id=":n8_3" function="internal">
        <lane id=":n8_3_0" index="0" speed="40.00" length="7.14" shape="1401.65,895.25 1401.25,898.05 1400.05,900.05 1398.35,901.07"/>
    </edge>
    <edge id=":n8_6" function="internal">
        <lane id=":n8_6_0" index="0" speed="40.00" length="3.18" shape="1398.35,901.07 1398.05,901.25 1395.25,901.65"/>
    </edge>
    <edge id=":n8_4" function="internal">
        <lane id=":n8_4_0" index="0" speed="40.00" length="5.00" shape="1395.25,898.35 1396.61,898.16 1397.57,897.58 1398.16,896.61 1398.35,895.25"/>
    </edge>
    <edge id=":n8_5" function="internal">
        <lane id=":n8_5_0" index="0" speed="40.00" length="10.32" shape="1395.25,898.35 1398.05,898.75 1400.05,899.95 1401.25,901.95 1401.65,904.75"/>
    </edge>
    <edge id=":n9_0" function="internal">
        <lane id=":n9_0_0" index="0" speed="40.00" length="9.50" shape="-1.65,404.75 -1.65,395.25"/>
    </edge>
    <edge id=":n9_1" function="internal">
        <lane id=":n9_1_0" index="0" speed="40.00" length="7.14" shape="-1.65,404.75 -1.25,401.95 -0.05,399.95 1.65,398.93"/>
    </edge>
    <edge id=":n9_6" function="internal">
        <lane id=":n9_6_0" index="0" speed="40.00" length="3.18" shape="1.65,398.93 1.95,398.75 4.75,398.35"/>
    </edge>
    <edge id=":n9_2" function="internal">
        <lane id=":n9_2_0" index="0" speed="40.00" length="5.00" shape="4.75,401.65 3.39,401.84 2.42,402.42 1.84,403.39 1.65,404.75"/>
    </edge>
    <edge id=":n9_3" function="internal">
        <lane id=":n9_3_0" index="0" speed="40.00" length="10.32" shape="4.75,401.65 1.95,401.25 -0.05,400.05 -1.25,398.05 -1.65,395.25"/>
    </edge>
    <edge id=":n9_4" function="internal">
        <lane id=":n9_4_0" index="0" speed="40.00" length="5.00" shape="1.65,395.25 1.84,396.61 2.42,397.58 3.39,398.16 4.75,398.35"/>
    </edge>
    <edge id=":n9_5" function="internal">
        <lane id=":n9_5_0" index="0" speed="40.00" length="9.50" shape="1.65,395.25 1.65,404.75"/>
    </edge>

    <edge id="D1-5" from="n1" to="n5" priority="75">
        <lane id="D1-5_0" index="0" speed="40.00" length="492.00" shape="-1.65,1396.75 -1.65,904.75"/>
    </edge>
    <edge id="D10-14" from="n10" to="n14" priority="75">
        <lane id="D10-14_0" index="0" speed="40.00" length="390.50" shape="398.35,395.25 398.35,4.75"/>
    </edge>
    <edge id="D11-15" from="n11" to="n15" priority="75">
        <lane id="D11-15_0" index="0" speed="40.00" length="390.50" shape="898.35,395.25 898.35,4.75"/>
    </edge>
    <edge id="D12-16" from="n12" to="n16" priority="75">
        <lane id="D12-16_0" index="0" speed="40.00" length="392.00" shape="1398.35,395.25 1398.35,3.25"/>
    </edge>
    <edge id="D2-6" from="n2" to="n6" priority="75">
        <lane id="D2-6_0" index="0" speed="40.00" length="490.50" shape="398.35,1395.25 398.35,904.75"/>
    </edge>
    <edge id="D3-7" from="n3" to="n7" priority="75">
        <lane id="D3-7_0" index="0" speed="40.00" length="490.50" shape="898.35,1395.25 898.35,904.75"/>
    </edge>
    <edge id="D4-8" from="n4" to="n8" priority="75">
        <lane id="D4-8_0" index="0" speed="40.00" length="492.00" shape="1398.35,1396.75 1398.35,904.75"/>
    </edge>
    <edge id="D5-9" from="n5" to="n9" priority="75">
        <lane id="D5-9_0" index="0" speed="40.00" length="490.50" shape="-1.65,895.25 -1.65,404.75"/>
    </edge>
    <edge id="D6-10" from="n6" to="n10" priority="75">
        <lane id="D6-10_0" index="0" speed="40.00" length="490.50" shape="398.35,895.25 398.35,404.75"/>
    </edge>
    <edge id="D7-11" from="n7" to="n11" priority="75">
        <lane id="D7-11_0" index="0" speed="40.00" length="490.50" shape="898.35,895.25 898.35,404.75"/>
    </edge>
    <edge id="D8-12" from="n8" to="n12" priority="75">
        <lane id="D8-12_0" index="0" speed="40.00" length="490.50" shape="1398.35,895.25 1398.35,404.75"/>
    </edge>
    <edge id="D9-13" from="n9" to="n13" priority="75">
        <lane id="D9-13_0" index="0" speed="40.00" length="392.00" shape="-1.65,395.25 -1.65,3.25"/>
    </edge>
    <edge id="L10-9" from="n10" to="n9" priority="75">
        <lane id="L10-9_0" index="0" speed="40.00" length="390.50" shape="395.25,401.65 4.75,401.65"/>
    </edge>
    <edge id="L11-10" from="n11" to="n10" priority="75">
        <lane id="L11-10_0" index="0" speed="40.00" length="490.50" shape="895.25,401.65 404.75,401.65"/>
    </edge>
    <edge id="L12-11" from="n12" to="n11" priority="75">
        <lane id="L12-11_0" index="0" speed="40.00" length="490.50" shape="1395.25,401.65 904.75,401.65"/>
    </edge>
    <edge id="L14-13" from="n14" to="n13" priority="75">
        <lane id="L14-13_0" index="0" speed="40.00" length="392.00" shape="395.25,1.65 3.25,1.65"/>
    </edge>
    <edge id="L15-14" from="n15" to="n14" priority="75">
        <lane id="L15-14_0" index="0" speed="40.00" length="490.50" shape="895.25,1.65 404.75,1.65"/>
    </edge>
    <edge id="L16-15" from="n16" to="n15" priority="75">
        <lane id="L16-15_0" index="0" speed="40.00" length="492.00" shape="1396.75,1.65 904.75,1.65"/>
    </edge>
    <edge id="L2-1" from="n2" to="n1" priority="75">
        <lane id="L2-1_0" index="0" speed="40.00" length="392.00" shape="395.25,1401.65 3.25,1401.65"/>
    </edge>
    <edge id="L3-2" from="n3" to="n2" priority="75">
        <lane id="L3-2_0" index="0" speed="40.00" length="490.50" shape="895.25,1401.65 404.75,1401.65"/>
    </edge>
    <edge id="L4-3" from="n4" to="n3" priority="75">
        <lane id="L4-3_0" index="0" speed="40.00" length="492.00" shape="1396.75,1401.65 904.75,1401.65"/>
    </edge>
    <edge id="L6-5" from="n6" to="n5" priority="75">
        <lane id="L6-5_0" index="0" speed="40.00" length="390.50" shape="395.25,901.65 4.75,901.65"/>
    </edge>
    <edge id="L7-6" from="n7" to="n6" priority="75">
        <lane id="L7-6_0" index="0" speed="40.00" length="490.50" shape="895.25,901.65 404.75,901.65"/>
    </edge>
    <edge id="L8-7" from="n8" to="n7" priority="75">
        <lane id="L8-7_0" index="0" speed="40.00" length="490.50" shape="1395.25,901.65 904.75,901.65"/>
    </edge>
    <edge id="R1-2" from="n1" to="n2" priority="75">
        <lane id="R1-2_0" index="0" speed="40.00" length="392.00" shape="3.25,1398.35 395.25,1398.35"/>
    </edge>
    <edge id="R10-11" from="n10" to="n11" priority="75">
        <lane id="R10-11_0" index="0" speed="40.00" length="490.50" shape="404.75,398.35 895.25,398.35"/>
    </edge>
    <edge id="R11-12" from="n11" to="n12" priority="75">
        <lane id="R11-12_0" index="0" speed="40.00" length="490.50" shape="904.75,398.35 1395.25,398.35"/>
    </edge>
    <edge id="R13-14" from="n13" to="n14" priority="75">
        <lane id="R13-14_0" index="0" speed="40.00" length="392.00" shape="3.25,-1.65 395.25,-1.65"/>
    </edge>
    <edge id="R14-15" from="n14" to="n15" priority="75">
        <lane id="R14-15_0" index="0" speed="40.00" length="490.50" shape="404.75,-1.65 895.25,-1.65"/>
    </edge>
    <edge id="R15-16" from="n15" to="n16" priority="75">
        <lane id="R15-16_0" index="0" speed="40.00" length="492.00" shape="904.75,-1.65 1396.75,-1.65"/>
    </edge>
    <edge id="R2-3" from="n2" to="n3" priority="75">
        <lane id="R2-3_0" index="0" speed="40.00" length="490.50" shape="404.75,1398.35 895.25,1398.35"/>
    </edge>
    <edge id="R3-4" from="n3" to="n4" priority="75">
        <lane id="R3-4_0" index="0" speed="40.00" length="492.00" shape="904.75,1398.35 1396.75,1398.35"/>
    </edge>
    <edge id="R5-6" from="n5" to="n6" priority="75">
        <lane id="R5-6_0" index="0" speed="40.00" length="390.50" shape="4.75,898.35 395.25,898.35"/>
    </edge>
    <edge id="R6-7" from="n6" to="n7" priority="75">
        <lane id="R6-7_0" index="0" speed="40.00" length="490.50" shape="404.75,898.35 895.25,898.35"/>
    </edge>
    <edge id="R7-8" from="n7" to="n8" priority="75">
        <lane id="R7-8_0" index="0" speed="40.00" length="490.50" shape="904.75,898.35 1395.25,898.35"/>
    </edge>
    <edge id="R9-10" from="n9" to="n10" priority="75">
        <lane id="R9-10_0" index="0" speed="40.00" length="390.50" shape="4.75,398.35 395.25,398.35"/>
    </edge>
    <edge id="U10-6" from="n10" to="n6" priority="75">
        <lane id="U10-6_0" index="0" speed="40.00" length="490.50" shape="401.65,404.75 401.65,895.25"/>
    </edge>
    <edge id="U11-7" from="n11" to="n7" priority="75">
        <lane id="U11-7_0" index="0" speed="40.00" length="490.50" shape="901.65,404.75 901.65,895.25"/>
    </edge>
    <edge id="U12-8" from="n12" to="n8" priority="75">
        <lane id="U12-8_0" index="0" speed="40.00" length="490.50" shape="1401.65,404.75 1401.65,895.25"/>
    </edge>
    <edge id="U13-9" from="n13" to="n9" priority="75">
        <lane id="U13-9_0" index="0" speed="40.00" length="392.00" shape="1.65,3.25 1.65,395.25"/>
    </edge>
    <edge id="U14-10" from="n14" to="n10" priority="75">
        <lane id="U14-10_0" index="0" speed="40.00" length="390.50" shape="401.65,4.75 401.65,395.25"/>
    </edge>
    <edge id="U15-11" from="n15" to="n11" priority="75">
        <lane id="U15-11_0" index="0" speed="40.00" length="390.50" shape="901.65,4.75 901.65,395.25"/>
    </edge>
    <edge id="U16-12" from="n16" to="n12" priority="75">
        <lane id="U16-12_0" index="0" speed="40.00" length="392.00" shape="1401.65,3.25 1401.65,395.25"/>
    </edge>
    <edge id="U5-1" from="n5" to="n1" priority="75">
        <lane id="U5-1_0" index="0" speed="40.00" length="492.00" shape="1.65,904.75 1.65,1396.75"/>
    </edge>
    <edge id="U6-2" from="n6" to="n2" priority="75">
        <lane id="U6-2_0" index="0" speed="40.00" length="490.50" shape="401.65,904.75 401.65,1395.25"/>
    </edge>
    <edge id="U7-3" from="n7" to="n3" priority="75">