<?xml version="1.0" encoding="UTF-8"?>

<!-- generated on Wed Dec 10 20:59:18 2014 by SUMO polyconvert Version 0.21.0
<?xml version="1.0" encoding="UTF-8"?>

-->

<additional>
    <poly id="101401535" type="unknown" color="51,128,255" fill="0" layer="-1.00" shape="5343.84,2532.00 5377.64,2479.06 5396.81,2449.03 5421.68,2410.08 5446.78,2371.17 5476.48,2324.26 5510.10,2271.61 5517.44,2260.11 5539.38,2225.75 5565.05,2185.53 5592.05,2143.25 5616.36,2105.39"/>
    <poly id="106810676" type="unknown" color="51,128,255" fill="0" layer="-1.00" shape="3008.97,3387.89 2997.39,3377.57 2995.02,3376.04"/>
    <poly id="106923181" type="unknown" color="51,128,255" fill="0" layer="-1.00" shape="3955.34,2440.03 3947.68,2436.74 3937.14,2427.47"/>
    <poly id="106935657" type="unknown" color="51,128,255" fill="0" layer="-1.00" shape="2604.45,3880.09 2608.36,3890.05"/>
    <poly id="106935804" type="unknown" color="51,128,255" fill="0" layer="-1.00" shape="3259.14,3337.91 3257.70,3341.67 3201.02,3477.38"/>
    <poly id="106936274" type="unknown" color="51,128,255" fill="0" layer="-1.00" shape="3032.32,3384.52 3220.45,3329.07 3224.81,3327.91 3230.26,3326.30"/>
    <poly id="106936723" type="unknown" color="51,128,255" fill="0" layer="-1.00" shape="4390.06,3372.19 4388.18,3383.77 4386.48,3393.10 4385.67,3397.94 4373.46,3413.01"/>
    <poly id="113798872" type="unknown" color="51,128,255" fill="0" layer="-1.00" shape="4390.68,3600.88 4384.86,3598.74 4352.11,3585.32 4308.81,3567.87"/>
    <poly id="113798873" type="unknown" color="51,128,255" fill="0" layer="-1.00" shape="4402.76,3606.69 4390.68,3600.88"/>
    <poly id="113815169" type="unknown" color="51,128,255" fill="0" layer="-1.00" shape="4844.36,3593.20 4859.94,3595.32 4932.25,3619.04 4940.35,3618.98 4947.50,3614.44"/>
    <poly id="115025694" type="unknown" color="51,128,255" fill="1" layer="-1.00" shape="3520.11,4084.57 3528.36,4054.41 3570.59,4064.59 3570.50,4099.48 3520.11,4084.57"/>
    <poly id="115026666" type="unknown" color="51,128,255" fill="0" layer="-1.00" shape="2874.47,3602.14 2934.80,3665.59 3011.08,3738.54"/>
    <poly id="115026667" type="unknown" color="51,128,255" fill="0" layer="-1.00" shape="3127.49,3840.06 3129.06,3830.93 3129.70,3824.63 3127.12,3820.74 3122.97,3817.63 3047.30,3785.30 3037.60,3786.50 3029.55,3790.36 2993.92,3866.18"/>
    <poly id="115026668" type="unknown" color="51,128,255" fill="0" layer="-1.00" shape="2978.35,3492.70 2874.47,3602.14"/>
    <poly id="115026669" type="unknown" color="51,128,255" fill="0" layer="-1.00" shape="3085.23,4217.71 3083.44,4216.37 3070.02,4206.34 3041.85,4198.65 3028.57,4188.99"/>
    <poly id="115672717" type="unknown" color="51,128,255" fill="0" layer="-1.00" shape="2632.93,2296.57 2626.98,2312.17 2595.55,2388.67 2564.01,2465.48"/>
    <poly id="115672718" type="unknown" color="51,128,255" fill="0" layer="-1.00" shape="2227.86,2350.16 2203.38,2507.01"/>
    <poly id="117119226" type="unknown" color="51,128,255" fill="0" layer="-1.00" shape="4282.80,2975.91 4045.29,2881.60 4041.93,2880.30 3805.91,2784.46 3798.52,2781.46 3793.57,2779.62 3783.71,2775.69 3635.52,2717.25 3625.94,2713.47"/>
    <poly id="121823814" type="unknown" color="51,128,255" fill="0" layer="-1.00" shape="3874.90,2610.41 3885.12,2609.26 3990.15,2651.01 4113.25,2699.25 4238.35,2750.19 4360.03,2798.53 4393.35,2820.64"/>
    <poly id="121823815" type="unknown" color="51,128,255" fill="0" layer="-1.00" shape="3874.90,2610.41 3879.72,2618.89 3985.16,2662.50 4108.71,2710.97 4233.53,2761.94 4355.55,2809.91 4393.35,2820.64 4474.07,2850.98"/>
    <poly id="121823817" type="unknown" color="51,128,255" fill="0" layer="-1.00" shape="2768.71,2368.91 2776.56,2353.43 2794.03,2315.73 2800.39,2302.72 2852.69,2195.65 2858.36,2182.59 2860.58,2177.48 2923.72,2051.16 2927.99,2042.22"/>
    <poly id="121846043" type="unknown" color="51,128,255" fill="0" layer="-1.00" shape="4505.42,2688.52 4474.07,2850.98"/>
    <poly id="121846052" type="unknown" color="51,128,255" fill="0" layer="-1.00" shape="5408.65,2633.13 5400.86,2638.72 5393.80,2641.18 5382.46,2647.59"/>
    <poly id="121846055" type="unknown" color="51,128,255" fill="0" layer="-1.00" shape="5250.96,2989.46 5249.28,3000.18 5247.02,3014.57 5237.68,3071.58 5223.50,3145.25 5222.47,3154.13 5232.97,3159.84 5307.90,3190.60"/>
    <poly id="121846057" type="unknown" color="51,128,255" fill="0" layer="-1.00" shape="5235.59,2982.88 5237.38,2970.08 5246.35,2905.75 5261.43,2827.93 5265.50,2821.49 5273.64,2812.26 5365.85,2672.60 5377.00,2655.69 5382.46,2647.59 5393.23,2629.81"/>
    <poly id="121846080" type="unknown" color="51,128,255" fill="0" layer="-1.00" shape="4708.40,1615.44 4654.97,1743.12 4604.22,1869.95 4548.67,1992.31 4476.98,2176.15 4423.57,2307.13 4358.75,2452.21 4296.13,2600.39"/>
    <poly id="121846083" type="unknown" color="51,128,255" fill="0" layer="-1.00" shape="4444.41,3227.70 4450.03,3219.68 4466.11,3204.20 4490.64,3182.55"/>
    <poly id="121846086" type="unknown" color="51,128,255" fill="0" layer="-1.00" shape="4452.86,3443.46 4449.17,3442.27 4445.31,3441.02 4373.46,3413.01 4366.76,3410.76"/>
    <poly id="121846090" type="unknown" color="51,128,255" fill="0" layer="-1.00" shape="5134.66,2760.29 5160.42,2750.92 5189.60,2737.76 5261.79,2687.06 5298.51,2673.21 5352.21,2657.91 5357.94,2656.60 5366.27,2654.71 5382.46,2647.59"/>
    <poly id="121846091" type="unknown" color="51,128,255" fill="0" layer="-1.00" shape="5030.48,2796.64 5002.78,2807.44 4966.48,2817.90 4951.07,2820.59 4935.53,2821.60 4897.66,2822.28 4870.76,2825.75 4847.30,2832.02 4828.77,2839.67 4808.14,2851.25 4791.90,2861.84 4775.18,2874.16 4758.74,2891.13 4746.02,2907.56 4653.65,3040.65 4635.96,3062.55 4609.40,3090.30 4497.51,3191.02"/>
    <poly id="121846101" type="unknown" color="51,128,255" fill="0" layer="-1.00" shape="4375.14,3200.33 4384.60,3203.88 4392.82,3207.02 4437.42,3224.75 4444.41,3227.70 4469.33,3241.01"/>
    <poly id="121848064" type="unknown" color="51,128,255" fill="0" layer="-1.00" shape="2909.62,2422.55 2902.57,2402.85"/>
    <poly id="121848065" type="unknown" color="51,128,255" fill="0" layer="-1.00" shape="4130.73,3110.34 4154.15,3102.82"/>
    <poly id="121848066" type="unknown" color="51,128,255" fill="0" layer="-1.00" shape="4469.33,3241.01 4471.09,3298.33 4472.80,3352.05"/>
    <poly id="122710015" type="unknown" color="51,128,255" fill="1" layer="-1.00" shape="4596.99,4019.55 4580.49,4057.87 4531.28,4037.84 4548.96,3999.24 4596.99,4019.55"/>
    <poly id="122730585" type="unknown" color="51,128,255" fill="1" layer="-1.00" shape="3748.98,4055.06 3786.57,4071.42 3805.38,4034.23 3768.60,4018.01 3748.98,4055.06"/>
    <poly id="122739481" type="unknown" color="51,128,255" fill="0" layer="-1.00" shape="4950.21,3621.60 4935.43,3647.07"/>
    <poly id="122739483" type="unknown" color="51,128,255" fill="0" layer="-1.00" shape="4928.86,3645.07 4943.00,3621.41"/>
    <poly id="122739485" type="unknown" color="51,128,255" fill="0" layer="-1.00" shape="4935.43,3647.07 4920.69,3673.23 4857.33,3780.57"/>
    <poly id="122739488" type="unknown" color="51,128,255" fill="0" layer="-1.00" shape="4943.00,3621.41 4947.50,3614.44 4999.20,3510.93 5009.94,3481.73"/>
    <poly id="125509955" type="unknown" color="51,128,255" fill="0" layer="-1.00" shape="5162.20,3711.11 5153.63,3706.90"/>
    <poly id="125509957" type="unknown" color="51,128,255" fill="0" layer="-1.00" shape="5236.59,3752.34 5223.06,3744.30 5208.90,3735.97"/>
    <poly id="125536132" type="unknown" color="51,128,255" fill="0" layer="-1.00" shape="3325.76,4162.71 3216.65,4124.36 3215.66,4124.06 3134.96,4099.05"/>
    <poly id="125536133" type="unknown" color="51,128,255" fill="0" layer="-1.00" shape="3145.62,4324.02 3147.20,4304.15 3147.60,4298.95 3181.73,4206.48 3185.98,4193.07"/>
    <poly id="125536134" type="unknown" color="51,128,255" fill="0" layer="-1.00" shape="3193.50,4187.30 3194.28,4185.19 3216.65,4124.36 3234.46,4082.20"/>
    <poly id="125539240" type="unknown" color="51,128,255" fill="0" layer="-1.00" shape="2840.68,3637.74 2847.94,3645.73 2964.67,3741.90 2969.68,3744.75 2979.17,3745.24 2992.18,3750.99"/>
    <poly id="125539241" type="unknown" color="51,128,255" fill="0" layer="-1.00" shape="2936.35,3813.85 2993.92,3866.18"/>
    <poly id="125539242" type="unknown" color="51,128,255" fill="0" layer="-1.00" shape="2800.91,3677.12 2862.61,3731.22"/>
    <poly id="125539243" type="unknown" color="51,128,255" fill="0" layer="-1.00" shape="3011.08,3738.54 3118.24,3624.77"/>
    <poly id="125539244" type="unknown" color="51,128,255" fill="0" layer="-1.00" shape="2993.92,3866.18 2984.11,3888.54 2983.27,3890.42"/>
    <poly id="125539245" type="unknown" color="51,128,255" fill="0" layer="-1.00" shape="2778.25,3978.88 2821.27,3933.17 2884.31,3867.83 2887.01,3865.04 2936.35,3813.85"/>
    <poly id="125539246" type="unknown" color="51,128,255" fill="0" layer="-1.00" shape="3379.79,4131.88 3393.69,4188.11 3397.56,4207.52 3398.22,4218.73 3398.83,4233.93 3397.10,4241.76"/>
    <poly id="125539247" type="unknown" color="51,128,255" fill="0" layer="-1.00" shape="2874.47,3602.14 2840.68,3637.74 2800.91,3677.12"/>
    <poly id="125539248" type="unknown" color="51,128,255" fill="0" layer="-1.00" shape="3234.46,4082.20 3235.59,4081.26 3240.84,4072.97 3266.40,4019.67 3269.88,4015.07 3274.16,4012.34 3278.21,4011.74 3294.00,4011.83 3304.65,4014.51"/>
    <poly id="125539249" type="unknown" color="51,128,255" fill="0" layer="-1.00" shape="3208.05,3912.71 3280.62,3978.79"/>
    <poly id="125539250" type="unknown" color="51,128,255" fill="0" layer="-1.00" shape="3284.09,3974.31 3280.62,3978.79 3268.67,3996.63"/>
    <poly id="125542069" type="unknown" color="51,128,255" fill="0" layer="-1.00" shape="2995.02,3376.04 3009.02,3344.25 3048.38,3250.15"/>
    <poly id="125542070" type="unknown" color="51,128,255" fill="0" layer="-1.00" shape="2642.90,3877.44 2617.17,3884.98 2608.36,3890.05 2424.30,3976.97 2411.53,3982.73 2377.71,3997.13 2309.96,4032.36 2239.01,4060.81 2226.72,4072.92 2079.69,4106.21 2045.04,4113.05 1887.58,4147.35 1855.15,4154.04 1690.62,4188.75 1654.07,4193.64"/>
    <poly id="125542072" type="unknown" color="51,128,255" fill="0" layer="-1.00" shape="2576.46,3052.57 2597.11,3067.10 2693.55,3106.17 2829.92,3163.26 2937.54,3208.31 3034.28,3248.80 3048.38,3250.15"/>
    <poly id="125542078" type="unknown" color="51,128,255" fill="0" layer="-1.00" shape="3048.38,3250.15 3050.97,3251.41 3073.57,3261.85 3142.38,3289.14 3154.43,3294.20"/>
    <poly id="125542084" type="unknown" color="51,128,255" fill="0" layer="-1.00" shape="3295.59,3522.87 3287.59,3513.94 3201.02,3477.38 3146.58,3454.40 3113.95,3440.62"/>
    <poly id="125542086" type="unknown" color="51,128,255" fill="0" layer="-1.00" shape="2576.46,3052.57 2601.25,3059.29 2698.49,3100.96 2833.37,3154.83 2940.96,3200.81 2944.99,3202.54 3037.03,3240.85 3048.38,3250.15"/>
    <poly id="125542093" type="unknown" color="51,128,255" fill="0" layer="-1.00" shape="2439.33,2786.25 2372.72,2957.03"/>
    <poly id="125763290" type="unknown" color="51,128,255" fill="0" layer="-1.00" shape="3798.41,4098.64 3802.20,4090.56"/>
    <poly id="125763819" type="unknown" color="51,128,255" fill="0" layer="-1.00" shape="5210.74,3935.56 5215.66,3934.67"/>
    <poly id="126271644" type="unknown" color="51,128,255" fill="0" layer="-1.00" shape="4984.75,0.00 4931.79,118.22 4894.25,202.88 4889.79,214.43 4886.84,222.08 4857.07,292.72 4829.08,359.13 4800.84,426.13 4664.74,749.03 4644.77,796.40 4622.70,847.45 4568.77,971.20 4466.86,1204.45 4452.33,1237.72 4443.03,1259.11 4419.50,1315.16 4355.26,1468.21 4328.71,1531.45 4311.30,1572.93 4280.62,1643.38 4272.97,1660.94 4252.29,1716.39 4250.46,1720.65 4197.86,1843.24 4141.17,1977.23 4118.61,2030.55 4094.59,2087.85 4064.00,2160.86 4002.13,2307.68 3960.39,2406.60 3947.68,2436.74 3940.16,2456.51 3909.50,2519.32 3868.12,2607.24"/>
    <poly id="126442631" type="unknown" color="51,128,255" fill="0" layer="-1.00" shape="5092.66,2928.92 5067.29,2747.38"/>
    <poly id="126443817" type="unknown" color="51,128,255" fill="1" layer="-1.00" shape="2828.80,2520.89 2815.69,2515.85 2806.73,2538.91 2864.24,2561.01 2885.20,2507.08 2862.07,2498.19 2885.95,2436.74 2866.69,2429.33 2849.37,2417.55 2825.92,2479.18 2842.66,2480.44 2839.04,2488.63 2821.37,2481.84 2811.04,2508.41 2830.71,2515.97 2828.80,2520.89"/>
    <poly id="126444311" type="unknown" color="51,128,255" fill="1" layer="-1.00" shape="3139.20,2518.70 3176.61,2533.70 3168.11,2555.65 3157.38,2551.20 3144.62,2585.12 3129.32,2579.39 3142.38,2545.41 3130.44,2540.20 3139.20,2518.70"/>
    <poly id="126500711" type="unknown" color="51,128,255" fill="1" layer="-1.00" shape="3128.25,3267.41 3143.86,3273.59 3167.84,3215.16 3151.09,3208.35 3128.25,3267.41"/>
    <poly id="127536292" type="unknown" color="51,128,255" fill="0" layer="-1.00" shape="4366.76,3410.76 4270.83,3370.81 4259.27,3366.15 4134.55,3315.76"/>
    <poly id="127724111" type="unknown" color="51,128,255" fill="0" layer="-1.00" shape="4402.76,3606.69 4401.59,3610.26 4374.47,3678.16 4370.20,3688.87 4325.27,3801.37 4269.88,3940.35"/>
    <poly id="127724115" type="unknown" color="51,128,255" fill="0" layer="-1.00" shape="4407.44,3594.77 4402.76,3606.69"/>
    <poly id="127724380" type="unknown" color="51,128,255" fill="1" layer="-1.00" shape="3748.93,3023.78 3755.45,3008.09 3734.83,2999.24 3728.59,3015.56 3748.93,3023.78"/>
    <poly id="127724381" type="unknown" color="51,128,255" fill="1" layer="-1.00" shape="3851.92,3040.11 3874.92,3049.40 3888.70,3015.93 3866.40,3006.72 3851.92,3040.11"/>
    <poly id="127742936" type="unknown" color="51,128,255" fill="1" layer="-1.00" shape="3532.97,2969.99 3539.66,2953.05 3540.62,2953.39 3560.15,2961.01 3553.10,2977.98 3532.97,2969.99"/>
    <poly id="127742937" type="unknown" color="51,128,255" fill="1" layer="-1.00" shape="3564.46,2954.72 3576.69,2926.19 3580.18,2924.80 3609.78,2936.55 3616.67,2920.51 3613.02,2919.01 3615.47,2913.16 3607.34,2909.56 3604.87,2914.56 3591.04,2908.83 3591.86,2906.96 3585.85,2904.34 3584.80,2906.76 3579.37,2904.42 3573.71,2904.76 3567.27,2907.52 3564.09,2911.05 3561.99,2915.91 3559.55,2914.87 3556.57,2921.96 3559.39,2923.19 3553.10,2938.31 3547.41,2935.97 3544.28,2944.05 3549.70,2946.39 3548.65,2948.82 3564.46,2954.72"/>
    <poly id="127742939" type="unknown" color="51,128,255" fill="1" layer="-1.00" shape="3559.55,2980.48 3569.53,2956.61 3564.46,2954.72 3548.65,2948.82 3549.70,2946.39 3544.28,2944.05 3540.62,2953.39 3560.15,2961.01 3553.10,2977.98 3559.55,2980.48"/>
    <poly id="127742941" type="unknown" color="51,128,255" fill="1" layer="-1.00" shape="3574.45,2940.71 3580.03,2927.83 3608.26,2939.21 3602.39,2951.88 3574.45,2940.71"/>
    <poly id="127742943" type="unknown" color="51,128,255" fill="1" layer="-1.00" shape="3544.37,3000.89 3549.90,3003.28 3556.55,2987.72 3559.55,2980.48 3553.10,2977.98 3532.97,2969.99 3529.35,2979.13 3535.04,2981.47 3536.10,2978.78 3551.01,2984.49 3544.37,3000.89"/>
    <poly id="127742944" type="unknown" color="51,128,255" fill="1" layer="-1.00" shape="3556.55,2987.72 3581.40,2998.04 3600.24,2955.33 3574.42,2944.65 3569.53,2956.61 3556.55,2987.72"/>
    <poly id="127742947" type="unknown" color="51,128,255" fill="1" layer="-1.00" shape="3563.64,3056.60 3564.53,3054.47 3566.16,3050.56 3572.45,3036.27 3538.01,3022.22 3537.15,3018.74 3544.37,3000.89 3551.01,2984.49 3536.10,2978.78 3535.04,2981.47 3529.35,2979.13 3524.86,2990.51 3529.25,2992.28 3523.51,3007.34 3520.68,3006.23 3518.02,3013.18 3520.82,3014.24 3518.81,3019.51 3519.69,3024.88 3524.95,3035.54 3530.92,3038.08 3529.88,3040.58 3535.84,3042.91 3537.32,3039.56 3553.70,3045.89 3551.34,3051.56 3563.64,3056.60"/>
    <poly id="127743418" type="unknown" color="51,128,255" fill="1" layer="-1.00" shape="3572.45,3036.27 3578.98,3019.28 3638.10,3042.66 3635.42,3049.10 3632.02,3057.31 3630.97,3059.81 3604.46,3049.27 3596.88,3067.88 3564.53,3054.47 3566.16,3050.56 3572.45,3036.27"/>
    <poly id="127743419" type="unknown" color="51,128,255" fill="1" layer="-1.00" shape="3655.29,3056.93 3662.54,3059.66 3675.94,3027.92 3648.90,3016.60 3638.10,3042.66 3635.42,3049.10 3655.29,3056.93"/>
    <poly id="127743421" type="unknown" color="51,128,255" fill="1" layer="-1.00" shape="3583.19,3001.11 3571.39,2996.02 3563.35,3015.36 3575.46,3020.41 3583.19,3001.11"/>
    <poly id="127743422" type="unknown" color="51,128,255" fill="1" layer="-1.00" shape="3580.47,3014.58 3605.65,2953.99 3617.14,2958.41 3606.18,2985.92 3609.59,2987.48 3620.73,2960.00 3631.96,2964.65 3620.82,2992.04 3624.35,2993.47 3635.31,2965.98 3659.90,2975.56 3634.79,3037.06 3609.83,3026.39 3620.83,3000.49 3617.30,2999.19 3606.49,3025.12 3595.46,3020.67 3606.68,2994.37 3602.78,2992.94 3591.93,3019.37 3580.47,3014.58"/>
    <poly id="127743423" type="unknown" color="51,128,255" fill="1" layer="-1.00" shape="3635.42,3049.10 3655.29,3056.93 3652.10,3065.17 3632.02,3057.31 3635.42,3049.10"/>
    <poly id="127743424" type="unknown" color="51,128,255" fill="1" layer="-1.00" shape="3639.13,2952.89 3614.42,2943.42 3624.61,2917.51 3649.30,2927.45 3639.13,2952.89"/>
    <poly id="127743425" type="unknown" color="51,128,255" fill="1" layer="-1.00" shape="3661.76,2932.33 3649.30,2927.45 3639.13,2952.89 3637.78,2955.99 3650.12,2961.07 3661.76,2932.33"/>
    <poly id="127743426" type="unknown" color="51,128,255" fill="1" layer="-1.00" shape="3626.12,3079.60 3629.57,3070.94 3625.49,3069.39 3622.11,3078.00 3596.88,3067.88 3604.46,3049.27 3630.97,3059.81 3657.34,3070.32 3650.03,3089.19 3639.85,3084.91 3643.13,3076.67 3638.79,3074.85 3635.31,3083.29 3626.12,3079.60"/>
    <poly id="127743427" type="unknown" color="51,128,255" fill="1" layer="-1.00" shape="3646.90,3015.33 3654.52,2997.36 3686.24,3010.92 3678.39,3028.99 3675.94,3027.92 3648.90,3016.60 3646.90,3015.33"/>
    <poly id="127744549" type="unknown" color="51,128,255" fill="1" layer="-1.00" shape="3993.14,4250.84 3988.42,4264.13 4032.92,4282.01 4062.25,4210.54 4042.28,4202.49 4039.01,4210.09 4013.06,4198.59 4007.10,4215.15 4011.32,4218.22 3998.81,4251.40 3993.14,4250.84"/>
    <poly id="127744553" type="unknown" color="51,128,255" fill="1" layer="-1.00" shape="3974.01,4191.07 3967.84,4197.60 3963.16,4207.85 3959.09,4206.30 3959.56,4201.19 3949.03,4199.20 3949.37,4205.88 3947.30,4212.09 3945.73,4216.13 3940.43,4223.98 3948.88,4230.05 3952.30,4224.10 3956.64,4225.38 3953.80,4235.89 3952.87,4246.90 3993.14,4250.84 3998.81,4251.40 4011.32,4218.22 4007.10,4215.15 3974.01,4191.07"/>
    <poly id="127747044" type="unknown" color="51,128,255" fill="1" layer="-1.00" shape="3908.39,4025.28 3915.63,4008.44 3925.03,4012.30 3922.71,4017.83 3917.92,4029.20 3908.39,4025.28"/>
    <poly id="127747046" type="unknown" color="51,128,255" fill="1" layer="-1.00" shape="3932.72,4021.89 3948.40,3985.57 3937.55,3981.41 3927.61,4005.16 3918.70,4001.28 3930.80,3973.13 3958.81,3984.46 3941.26,4025.34 3932.72,4021.89"/>
    <poly id="127747047" type="unknown" color="51,128,255" fill="1" layer="-1.00" shape="3936.36,4036.77 3917.92,4029.20 3922.71,4017.83 3932.72,4021.89 3941.26,4025.34 3936.36,4036.77"/>
    <poly id="127749138" type="unknown" color="51,128,255" fill="1" layer="-1.00" shape="3755.01,4150.23 3742.17,4144.67 3746.51,4134.68 3741.72,4132.63 3746.44,4121.84 3751.28,4123.90 3755.51,4113.94 3750.54,4111.85 3754.46,4103.07 3760.84,4088.10 3783.60,4098.23 3773.52,4120.54 3769.34,4118.86 3766.30,4125.32 3772.73,4127.91 3764.14,4148.01 3757.30,4144.97 3755.01,4150.23"/>
    <poly id="127749140" type="unknown" color="51,128,255" fill="1" layer="-1.00" shape="3713.38,4132.20 3724.64,4105.48 3735.01,4109.75 3732.59,4115.58 3746.44,4121.84 3741.72,4132.63 3727.87,4126.11 3723.35,4136.52 3713.38,4132.20"/>
    <poly id="127749142" type="unknown" color="51,128,255" fill="1" layer="-1.00" shape="3747.56,4173.71 3703.43,4155.14 3713.38,4132.20 3723.35,4136.52 3742.17,4144.67 3755.01,4150.23 3757.89,4151.48 3747.56,4173.71"/>
    <poly id="127749143" type="unknown" color="51,128,255" fill="1" layer="-1.00" shape="3735.01,4109.75 3740.72,4096.69 3754.46,4103.07 3760.84,4088.10 3736.72,4077.13 3724.64,4105.48 3735.01,4109.75"/>
    <poly id="127750251" type="unknown" color="51,128,255" fill="1" layer="-1.00" shape="4064.09,3772.86 4052.20,3768.02 4047.45,3779.79 4031.99,3773.56 4035.38,3764.93 4021.92,3758.79 4028.62,3742.74 4042.24,3748.52 4045.12,3741.15 4061.33,3748.22 4057.23,3757.65 4068.54,3762.61 4064.09,3772.86"/>
    <poly id="128976424" type="unknown" color="51,128,255" fill="1" layer="-1.00" shape="4617.49,3349.25 4666.58,3282.55 4672.39,3281.92 4758.44,3343.02 4757.71,3348.17 4619.99,3351.81 4617.49,3349.25"/>
    <poly id="128976783" type="unknown" color="51,128,255" fill="1" layer="-1.00" shape="4882.26,3465.42 4869.54,3493.86 4830.26,3474.76 4841.96,3447.66 4882.26,3465.42"/>
    <poly id="128976784" type="unknown" color="51,128,255" fill="1" layer="-1.00" shape="4869.54,3493.86 4857.01,3523.29 4816.79,3505.82 4830.23,3474.88 4869.54,3493.86"/>
    <poly id="128978260" type="unknown" color="51,128,255" fill="1" layer="-1.00" shape="5148.66,3305.94 5117.65,3279.92 5181.90,3187.27 5221.06,3211.17 5225.74,3176.49 5278.48,3195.92 5279.89,3207.83 5276.08,3213.57 5245.36,3241.43 5148.66,3305.94"/>
    <poly id="129272100" type="unknown" color="51,128,255" fill="1" layer="-1.00" shape="4877.29,3017.94 4955.82,3015.70 4954.32,2900.34 4874.42,2902.48 4877.29,3017.94"/>
    <poly id="129272101" type="unknown" color="51,128,255" fill="1" layer="-1.00" shape="4986.10,3020.14 4977.20,3040.65 4961.76,3056.42 4947.87,3067.33 4928.52,3073.48 4915.58,3074.72 4903.16,3073.81 4886.90,3068.13 4876.03,3062.37 4857.43,3043.29 4850.82,3032.10 4849.11,3025.68 4846.36,3021.96 4868.93,3015.23 4881.63,3036.53 4895.23,3045.48 4906.61,3048.55 4920.13,3050.51 4930.36,3049.32 4942.70,3043.78 4949.65,3038.86 4957.63,3030.17 4960.13,3015.11 4986.10,3020.14"/>
    <poly id="129272102" type="unknown" color="51,128,255" fill="1" layer="-1.00" shape="4986.10,3020.14 4985.10,2984.19 4990.49,2984.12 4990.43,2975.70 4984.65,2975.75 4984.47,2963.01 4990.00,2962.96 4990.01,2954.37 4983.84,2954.43 4983.59,2939.95 4989.19,2939.88 4989.09,2932.37 4983.41,2932.44 4982.42,2904.93 4958.59,2904.60 4960.13,3015.11 4986.10,3020.14"/>
    <poly id="129272103" type="unknown" color="51,128,255" fill="1" layer="-1.00" shape="4868.93,3015.23 4865.84,2902.57 4873.74,2887.43 4883.83,2874.96 4890.24,2870.04 4909.02,2861.21 4881.89,2850.83 4871.69,2854.72 4853.08,2874.83 4842.61,2900.19 4844.66,3016.08 4846.36,3021.96 4868.93,3015.23"/>
    <poly id="129306792" type="unknown" color="51,128,255" fill="1" layer="-1.00" shape="4390.81,3314.32 4378.30,3296.23 4376.51,3293.65 4361.25,3302.72 4346.24,3308.73 4333.33,3312.65 4321.21,3314.77 4321.96,3318.49 4325.55,3336.11 4322.31,3337.57 4324.00,3341.22 4337.18,3339.26 4352.24,3334.68 4364.05,3330.59 4376.38,3324.71 4390.81,3314.32"/>
    <poly id="129306793" type="unknown" color="51,128,255" fill="1" layer="-1.00" shape="4403.52,3274.98 4378.30,3296.23 4390.81,3314.32 4376.38,3324.71 4364.05,3330.59 4352.24,3334.68 4337.18,3339.26 4324.00,3341.22 4322.31,3337.57 4325.55,3336.11 4321.96,3318.49 4314.42,3327.20 4297.29,3346.98 4296.55,3347.83 4319.09,3355.27 4317.13,3361.01 4352.50,3366.27 4378.76,3367.02 4390.70,3338.50 4382.49,3337.78 4408.42,3278.48 4403.52,3274.98"/>
    <poly id="129306794" type="unknown" color="51,128,255" fill="1" layer="-1.00" shape="4415.00,3327.43 4419.46,3317.52 4425.17,3319.97 4450.93,3330.72 4447.01,3340.69 4415.00,3327.43"/>
    <poly id="129306795" type="unknown" color="51,128,255" fill="1" layer="-1.00" shape="4820.59,3310.62 4831.66,3295.06 4824.98,3290.40 4813.90,3306.05 4820.59,3310.62"/>
    <poly id="129306796" type="unknown" color="51,128,255" fill="1" layer="-1.00" shape="4425.17,3319.97 4429.09,3310.20 4420.13,3306.50 4424.31,3296.71 4458.49,3310.57 4450.93,3330.72 4425.17,3319.97"/>
    <poly id="129306798" type="unknown" color="51,128,255" fill="1" layer="-1.00" shape="4704.48,3230.14 4715.39,3214.09 4721.94,3218.64 4711.29,3234.86 4704.48,3230.14"/>
    <poly id="129306799" type="unknown" color="51,128,255" fill="1" layer="-1.00" shape="4844.88,3305.40 4831.66,3295.06 4824.98,3290.40 4721.94,3218.64 4715.39,3214.09 4687.82,3196.36 4706.58,3170.71 4811.14,3243.10 4834.75,3261.13 4862.05,3281.97 4844.88,3305.40"/>
    <poly id="129306801" type="unknown" color="51,128,255" fill="1" layer="-1.00" shape="4819.31,3356.84 4660.83,3246.47 4682.00,3214.53 4704.48,3230.14 4711.29,3234.86 4813.90,3306.05 4820.59,3310.62 4841.84,3325.42 4819.31,3356.84"/>
    <poly id="129306802" type="unknown" color="51,128,255" fill="1" layer="-1.00" shape="4414.33,3279.42 4403.62,3274.46 4378.28,3295.57 4376.50,3293.05 4360.91,3302.40 4345.72,3308.48 4333.45,3312.20 4320.99,3314.30 4321.35,3318.24 4314.23,3326.68 4307.97,3320.48 4356.56,3268.28 4367.60,3260.99 4378.28,3244.55 4385.07,3228.15 4388.59,3225.65 4430.39,3241.18 4414.33,3279.42"/>
    <poly id="129306803" type="unknown" color="51,128,255" fill="1" layer="-1.00" shape="4342.54,2961.82 4350.40,2944.00 4410.06,2969.52 4362.63,3076.75 4306.47,3051.37 4308.93,3046.00 4303.91,3043.70 4307.72,3036.08 4315.91,3039.75 4323.37,3023.24 4317.94,3020.63 4321.09,3014.15 4323.47,3008.87 4334.21,3013.82 4339.63,3002.25 4326.79,2996.36 4334.26,2978.91 4344.44,2983.25 4351.97,2965.85 4342.54,2961.82"/>
    <poly id="129306804" type="unknown" color="51,128,255" fill="1" layer="-1.00" shape="4306.47,3051.37 4308.93,3046.00 4303.91,3043.70 4307.72,3036.08 4315.91,3039.75 4323.37,3023.24 4317.94,3020.63 4321.09,3014.15 4323.47,3008.87 4334.21,3013.82 4339.63,3002.25 4326.79,2996.36 4334.26,2978.91 4344.44,2983.25 4351.97,2965.85 4342.54,2961.82 4350.40,2944.00 4322.97,2931.47 4298.57,2985.81 4320.45,2995.67 4316.90,3003.74 4297.10,2995.41 4276.09,3041.92 4305.13,3054.16 4306.47,3051.37"/>
    <poly id="129306805" type="unknown" color="51,128,255" fill="1" layer="-1.00" shape="4314.42,3327.20 4307.53,3320.51 4287.30,3341.70 4288.41,3344.10 4292.21,3346.55 4297.29,3346.98 4314.42,3327.20"/>
    <poly id="129306907" type="unknown" color="51,128,255" fill="1" layer="-1.00" shape="4976.77,3265.43 4962.71,3283.86 4865.35,3218.42 4841.64,3202.74 4679.50,3084.96 4693.01,3065.72 4976.77,3265.43"/>
    <poly id="129306908" type="unknown" color="51,128,255" fill="1" layer="-1.00" shape="4834.75,3261.13 4865.35,3218.42 4841.64,3202.74 4811.14,3243.10 4834.75,3261.13"/>
    <poly id="129307169" type="unknown" color="51,128,255" fill="1" layer="-1.00" shape="5149.19,2931.89 5168.17,2885.65 5186.96,2893.81 5168.43,2939.86 5149.19,2931.89"/>
    <poly id="129307170" type="unknown" color="51,128,255" fill="1" layer="-1.00" shape="5094.37,2829.09 5091.98,2811.76 5108.19,2772.29 5140.46,2784.48 5119.32,2839.23 5094.37,2829.09"/>
    <poly id="129307171" type="unknown" color="51,128,255" fill="1" layer="-1.00" shape="5100.31,2912.01 5119.13,2866.14 5137.59,2874.14 5119.20,2919.83 5100.31,2912.01"/>
    <poly id="129307172" type="unknown" color="51,128,255" fill="1" layer="-1.00" shape="5130.48,2923.69 5149.42,2877.54 5168.16,2885.66 5149.14,2931.87 5130.48,2923.69"/>
    <poly id="129307173" type="unknown" color="51,128,255" fill="1" layer="-1.00" shape="5185.36,2941.14 5196.71,2912.55 5208.00,2917.23 5196.37,2945.59 5185.36,2941.14"/>
    <poly id="129307174" type="unknown" color="51,128,255" fill="1" layer="-1.00" shape="5170.38,2935.02 5182.02,2906.12 5196.68,2912.59 5185.34,2941.18 5170.38,2935.02"/>
    <poly id="129307175" type="unknown" color="51,128,255" fill="1" layer="-1.00" shape="5128.59,2896.53 5137.61,2874.12 5148.84,2878.94 5139.64,2901.25 5128.59,2896.53"/>
    <poly id="129307176" type="unknown" color="51,128,255" fill="1" layer="-1.00" shape="5195.07,2948.78 5213.98,2902.69 5232.66,2910.77 5213.66,2956.92 5195.07,2948.78"/>
    <poly id="129307813" type="unknown" color="51,128,255" fill="0" layer="-1.00" shape="5073.27,2741.66 5074.59,2733.15 5077.56,2728.86 5097.38,2719.92 5109.57,2712.50 5115.59,2704.19 5154.01,2608.51 5206.41,2478.17 5279.58,2308.98"/>
    <poly id="129307815" type="unknown" color="51,128,255" fill="1" layer="-1.00" shape="5041.30,2856.70 5065.81,2853.16 5059.68,2810.31 5035.25,2814.03 5041.30,2856.70"/>
    <poly id="129307816" type="unknown" color="51,128,255" fill="1" layer="-1.00" shape="5063.62,2896.56 5067.43,2886.81 5027.71,2871.38 5023.82,2881.35 5063.62,2896.56"/>
    <poly id="129307817" type="unknown" color="51,128,255" fill="0" layer="-1.00" shape="4868.92,2659.71 4806.26,2807.29"/>
    <poly id="129317821" type="unknown" color="51,128,255" fill="1" layer="-1.00" shape="5104.88,3344.62 5137.56,3316.47 4993.27,3181.69 4706.75,2976.17 4683.91,3006.61 4652.95,3047.87 4617.33,3086.22 4503.46,3189.37 4485.42,3218.88 4481.86,3243.81 4483.41,3269.90 4484.77,3284.11 4489.20,3321.89 4493.21,3347.67 4497.64,3357.57 4506.07,3361.12 4519.35,3360.00 4677.72,3140.87 4895.54,3291.52 4921.53,3257.37 5008.10,3315.27 5024.07,3298.97 5085.50,3333.05 5104.88,3344.62"/>
    <poly id="129320875" type="unknown" color="51,128,255" fill="1" layer="-1.00" shape="4368.68,3145.80 4386.53,3104.60 4359.46,3093.55 4342.80,3134.84 4368.68,3145.80"/>
    <poly id="129320876" type="unknown" color="51,128,255" fill="0" layer="-1.00" shape="4407.78,3110.44 4251.84,3046.41"/>
    <poly id="129320877" type="unknown" color="51,128,255" fill="1" layer="-1.00" shape="4347.19,3173.66 4354.89,3149.56 4385.06,3161.72 4374.12,3184.69 4347.19,3173.66"/>
    <poly id="129320878" type="unknown" color="51,128,255" fill="1" layer="-1.00" shape="4358.39,3141.47 4354.95,3149.57 4384.83,3161.61 4372.96,3136.00 4368.69,3145.81 4358.39,3141.47"/>
    <poly id="129322190" type="unknown" color="51,128,255" fill="1" layer="-1.00" shape="4007.67,2753.10 4021.94,2719.84 4066.55,2738.75 4052.28,2772.02 4007.67,2753.10"/>