<?xml version="1.0" encoding="UTF-8"?>

<!-- generated on Wed Dec 10 20:56:09 2014 by SUMO duarouter Version 0.21.0
<?xml version="1.0" encoding="UTF-8"?>

<configuration xmlns:xsi="http://www.w3.org/2001/XMLSchema-instance" xsi:noNamespaceSchemaLocation="http://sumo-sim.org/xsd/duarouterConfiguration.xsd">

    <input>
        <net-file value="curitiba.net.xml"/>
        <trip-files value="Curitrips.trips.xml"/>
    </input>

    <output>
        <output-file value="Curiroutes.rou.xml"/>
    </output>

    <processing>
        <ignore-errors value="true"/>
    </processing>

</configuration>
-->

<routes xmlns:xsi="http://www.w3.org/2001/XMLSchema-instance" xsi:noNamespaceSchemaLocation="http://sumo-sim.org/xsd/routes_file.xsd">
    <vType id="type1" length="5" minGap="2" vClass="passenger" guiShape="passenger">
        <carFollowing-Krauss/>
    </vType>

    <vehicle id="0" depart="0.00">
        <route edges="231094423#1 231094423#2 231094635#1 231100864#0 231100864#1 231101473#1 165471577#5 24552999#3 231100865#1 231100865#2 231094422 291469316 263505518#0 263505518#1 263505518#2 263505518#3 24576630#0 24576630#1 24576630#2 24576630#3 24576630#4 56235459#0 56235459#1 56235459#2 56235459#3 231094156#0 231094156#1 231094156#2 257599159#0 70461391#1 70461391#2"/>
    </vehicle>
    <vehicle id="1" depart="1.00">
        <route edges="165471577#10 165471575#1 24959937#13 263505507#7 263505507#8 263505518#0 263505518#1 263505518#2 263505518#3 70586543#2"/>
    </vehicle>
    <vehicle id="3" type="type1" depart="3.00">
        <route edges="171671488#0 171671488#1 171671488#2 24576729#0 24576729#1 289829949#0 29464177#0 29464177#1 29464177#2 29464177#3 173545697#5 173545697#6 44867748#0 44867748#1 231095196#0 231095196#1 231101466#0 231101466#1 231101466#2 231102766#0 231102766#1 231102766#2 316393925#9 316393925#10"/>
    </vehicle>
    <vehicle id="4" type="type1" depart="4.00">
        <route edges="126271644#6 126271644#7 231107719#1 231107717#1 231107717#2 231107711#0 231107711#1 24554228#0 24554228#1 24554228#2 231103929#0 231103929#1 231100865#0 231100865#1 231100858#2 231100858#3 231100862#0 231100862#1 231100862#2 231100860#0 231100860#1 231100866#0 231100866#1 231101472 231101479#0 231101479#1 231101479#2 231101474#0 231101474#1 231101474#2 231101474#3 231101474#4"/>
    </vehicle>
    <vehicle id="5" type="type1" depart="5.00">
        <route edges="263641094#3 263641094#4 263641094#5 263641094#6 263641094#7 47515634 47515622#0 47515622#1 47515622#2 47515622#3 47515622#4 47515622#5 47515622#6 47515622#7 47515622#8 121846043 248808903#0 248808903#1 248808903#2 248808903#3 248808903#4 248808903#5 231091475#0 231091475#1 231091475#2 164801791#0 55200329#2 161885242 55200326#1 55200326#2 55200326#3 55200326#4 163214480 231094424#0 161885243 291468708#1 291469316 263505510 165471576#0 165471576#1 165471576#2 165471576#3 125539250#0 125539250#1 165471580#0 165471580#1 165471580#2 165471580#3 165471580#4 29430888#0 29430888#1 29430888#2 29430888#3 24576729#1 289829949#0 289829949#1 305454727 305454723 305454726"/>
    </vehicle>
    <vehicle id="6" type="type1" depart="6.00">
        <route edges="231103932#0 161884091 231103928#1 231103928#2 161884111 231103921#1 231103933#1 231101475#0 231101475#1 231100862#1 231100862#2 231100860#0 231100860#1 231100866#0 231101469#2"/>
    </vehicle>
    <vehicle id="7" type="type1" depart="7.00">
        <route edges="24775812#0 24775812#1 70586543#0 70586543#1 70586543#2 231093229#0 231093229#1 231100857#0 231100857#1 231100857#2 231103924#0 231103924#1 231103924#2 117119226#0 -186782268#2 -186782268#1 121823815#2"/>
    </vehicle>
    <vehicle id="9" type="type1" depart="9.00">
        <route edges="247663603#2 -24576379#5 -24576379#4 28956301#6 231104764#4 231104764#5 231104764#6 252577421#0 252577421#1 252577421#2 252577421#3 252577421#4 252577421#5 252577421#6 61351202 231092035#2 231090367 24576673 131490365#0 113798872#0 113798872#1 161885250 55200328#2 55200328#3 55200328#4 55200328#5 161885244 55200329#1 55200329#2 161885242 55200326#1 55200326#2 55200326#3 55200326#4 163214480 231094424#0 231094424#1 231094423#0 231094423#1 231094423#2 231094423#3 231094423#4 231094423#5 231094423#6 231094634#0 231094634#1 231094634#2 231094634#3 231094851#0 231094851#1 231094851#2 231094851#3 161885252 231095197#1 231095194#1 231095194#2 231095194#3 231095194#4 231095194#5 231095194#6 231095194#7 29430888#7 173545697#2 173545697#3 -29464181#2"/>
    </vehicle>
    <vehicle id="10" type="type1" depart="10.00">
        <route edges="125542084#0 -125542084#0 232922869#0 263505507#6 263505507#7 263505507#8 263505518#0 263505518#1 263505518#2 263505518#3 24576630#0 24576630#1 24576630#2 24576630#3 24576630#4 231094153#0 231094153#1 231094153#2 231094153#3 231094153#4 231094153#5 24553696#0 24553696#1 24553696#2 24553696#3 252574746#0 252574746#1 252574746#2 28956301#3 28956301#4 28956301#5 24576379#4 24553958#0 24553958#1 24553958#2 195655598#0 195655598#1 47515620#3"/>
    </vehicle>
    <vehicle id="11" type="type1" depart="11.00">
        <route edges="263641094#6 263641094#7 47515634 47515622#0 47515622#1 47515622#2 47515622#3 47515622#4 47515622#5 47515622#6 47515622#7 47515622#8 121846043 248808903#0 248808903#1 248808903#2 248808903#3 248808903#4 248808903#5 231091475#0 231091475#1 127536292#1 56235264#0 56235264#1 231100858#0 231100858#1 231100858#2 -165471577#6 24552999#3 24552999#4"/>
    </vehicle>
    <vehicle id="12" type="type1" depart="12.00">
        <route edges="165073646#1 165073646#2 165073646#3 171671488#0 171671488#1 171671488#2 24576729#0 24576729#1 289829949#0 289829949#1 289829949#2 289829949#3 125542069 125542078#0 125542078#1 263505507#0 263505507#1 263505507#2 263505507#3 263505507#4 263505507#5 263505507#6 263505507#7 263505507#8 263505518#0 263505518#1 263505518#2 263505518#3 70586543#2 231093229#0 231093229#1 231100857#0 231100857#1 231100863#3 56235269#0 56235269#1 56235269#2 231091479#1 231091479#2 24553615#1 24553615#2 24553615#3 24553615#4 231092028#0 231092028#1 195556937#0 195556937#1 195556937#2 195556937#3 195556937#4 195556937#5 195556937#6 248806638#0 24552835#5"/>
    </vehicle>
    <vehicle id="13" type="type1" depart="13.00">
        <route edges="24574281#0 24574281#1 53366716#1 53366716#2 53366716#3 53333790#0 53333790#1 53333790#2 160688847 257599159#3 257599159#4 24775812#0 24775812#1 70586543#0 70586543#1 70586543#2 231093229#0 231093229#1 231100857#0 231100857#1 231100857#2"/>
    </vehicle>
    <vehicle id="14" type="type1" depart="14.00">
        <route edges="84518380 164417448#2 164417448#3 164417448#4 70586543#0 70586543#1 70586543#2 231093229#0 231093229#1 231100857#0 231100857#1 231100857#2 231103924#0 231103924#1 231103924#2 231103924#3 231103924#4 231103924#5 231103924#6 231103924#7 231107719#6 231107719#7 231107719#8 231107719#9 231107719#10 231107719#11 231107719#12 231107719#13 -30011070#0 -43548865 43548865"/>
    </vehicle>
    <vehicle id="15" type="type1" depart="15.00">
        <route edges="55200330#2 55200331 55200328#0 55200328#1 55200328#2 55200328#3 55200328#4 55200328#5 161885244 55200329#1 55200329#2 161885242 55200326#1 55200326#2 55200326#3 55200326#4 163214480 231094424#0 231094424#1 231094423#0 231094423#1 231094423#2 231094423#3 231094423#4 231094423#5 231094423#6 231094634#0 231094634#1 231094634#2 231094634#3 231094851#0 231094851#1 231094851#2 231094851#3 231094851#4 231095199#0 231095199#1 231095199#2 231095199#3 231095199#4 231095199#5 231095199#6 231095199#7 231095199#8 231095199#9 231095199#10 231095199#11 231095766#0 231095766#1 231095764#1 231101474#0 231101474#1 231101474#2 231101474#3 231101474#4"/>
    </vehicle>
    <vehicle id="16" type="type1" depart="16.00">
        <route edges="29422710#2 304610300#0 304610300#1 304610300#2 304610300#3 304610300#4 304610300#5 24576729#0 24576729#1 289829949#0 289829949#1 289829949#2 24576603#6 24576603#7 84140639#0 125542072#2"/>
    </vehicle>
    <vehicle id="17" type="type1" depart="17.00">
        <route edges="279766532#2 309918156 309918155#0 309918155#1 248808903#1 129320876 231103924#2 231103924#3 231103924#4 231103924#5 121823814#4 121823815#5 248808902#0 248808902#1"/>
    </vehicle>
    <vehicle id="18" type="type1" depart="18.00">
        <route edges="47515620#1 47515620#2 195655598#2 24553948#0 263641094#0 263641094#1 263641104#0 263641104#1 24722005 24576399#0 24576399#1 122739481 122739485#0 122739485#1 24753300 24753298 24576401#0 24576401#1 24553719#7 24576642#0 24576642#1 24601064#1 55199745#0 55199745#1 231092960#0 231092960#1 113798873 113798872#0 113798872#1 161885250 55200328#2 55200328#3 55200328#4 55200328#5 161885244 55200329#1 55200329#2 161885242 55200326#1 55200326#2 55200326#3 55200326#4 163214480 231094424#0 231094424#1 231094423#0 231094423#1 231094423#2 231094423#3 231094423#4 231094423#5 231094423#6 231094634#0 231094634#1 231094634#2 231094634#3 231094851#0 231094851#1 231094851#2 231094851#3 161885252 231095197#1 231095194#1 231095194#2 231095194#3 24576603#9 44867748#0 125542086#0"/>
    </vehicle>
    <vehicle id="19" type="type1" depart="19.00">
        <route edges="-260110495#3 43547880#1 248803655#1 248803655#2 248803655#3 248803655#4 248803655#5 121846043 248808903#0 248808903#1 248808903#2 248808903#3 248808903#4 248808903#5 231091475#0 231091475#1 231091475#2 164801791#0 55200329#2 161885242 55200326#1 55200326#2 55200326#3 55200326#4 163214480 231094424#0 161885243 291468708#1 291469316 263505510 165471576#0 165471576#1 165471576#2 165471576#3 125539250#0 125539250#1 165471580#0 165471580#1 165471580#2 165471580#3 165471580#4 29430888#0 29430888#1 29429114#0 29429114#1 29429114#2 24775962#5 24775962#6 24775962#7 161392536#7 161392536#8"/>
    </vehicle>
    <vehicle id="20" type="type1" depart="20.00">
        <route edges="56235264#0 56235264#1 231100858#0 24552855#1 24552855#2 231094421 291468707#0 291468707#1 44369040 165471576#0 164417448#1 137441186"/>
    </vehicle>
    <vehicle id="21" type="type1" depart="21.00">
        <route edges="29422713#5 231102775#0 231102775#1 231101471#0 231101471#1 231101471#2 231101471#3 231101473#0 231101473#1 231101473#2 231100863#0 231100863#1 231100863#2 231100863#3 56235269#0 56235269#1 56235269#2 56235269#3 56235269#4 56235269#5 231091474 289957316#0 289957316#1 231092455#0 231092455#1 276650447 231092458#0 231092458#1 24576384#2 24576384#3 24576384#4 24553696#3 252574746#0 252574746#1 -25464947#2 25464947#2"/>
    </vehicle>
    <vehicle id="22" type="type1" depart="22.00">
        <route edges="231103924#10 231103924#11 231103924#12 121846080#0 121846080#1 231107719#5 231107719#6 248803655#5 121846043 248808903#0 248808903#1 248808903#2 121846101#1 121846101#2 121846101#3 121848066#0 121848066#1 24553767#0 231092028#1 195556937#0 195556937#1 195556937#2 195556937#3 195556937#4 195556937#5 195556937#6 195556937#7 252577424#0 28956301#9 24791922 47515620#2 47515620#3"/>
    </vehicle>
    <vehicle id="23" type="type1" depart="23.00">
        <route edges="231103927#0 231103927#1 161884107 231101546#1 231101546#2 231103929#1 231100863#0 231100863#1 231100863#2 231100863#3 56235269#0 56235269#1 56235269#2 56235269#3 56235269#4 56235269#5 231091474 289957316#0 289957316#1 231092455#0 231092455#1 276650447 231092458#0 231092458#1 24576384#2 24576384#3 24576384#4 24553696#3 252574746#0 -43948636#3 24553689#4"/>
    </vehicle>
    <vehicle id="24" type="type1" depart="24.00">
        <route edges="194963122#1 122739483 122739488#0 122739488#1 295024771 252577421#1 252577421#2 252577421#3 252577421#4 252577421#5 252577421#6 61351202 231092035#2 231090367 121846086#0 121846086#1 121846086#2 127536292#0 127536292#1 56235264#0 56235264#1 231100858#0 231100858#1 231100858#2 231100858#3 231100862#0 231100862#1 231100862#2 231100860#0 231100860#1 231100866#0 231100866#1 231101472 231101479#0 231101479#1 231101479#2 231101474#0 231101474#1 231101474#2 231101474#3 231101474#4"/>
    </vehicle>
    <vehicle id="25" type="type1" depart="25.00">
        <route edges="161392536#0 161392536#1 161392536#2 163603476#8 289829949#0 289829949#1 289829949#2 289829949#3 125542069 125542078#0 125542078#1 263505507#0 263505507#1 263505507#2 263505507#3 263505507#4 263505507#5 263505507#6 263505507#7 263505507#8 263505518#0 263505518#1 263505518#2 263505518#3 24576630#0 24576630#1 164801791#2 164801791#3 164801791#4 164801791#5 38855900#0 38855900#1 -72623884#16"/>
    </vehicle>
    <vehicle id="26" type="type1" depart="26.00">
        <route edges="45254274#2 45254274#3 231107717#0 231107717#1 231107717#2 231107711#0 231107711#1 121823814#0 121823814#1 121823814#2 121823814#3 121823814#4 121823815#5 248808903#0 248808903#1 248808903#2 121846101#1 121846101#2 121846101#3 121848066#0 121848066#1 24553767#0 24553767#1 24553767#2 231091819 289957316#0 289957316#1 231092455#0 231092455#1 276650447 231092458#0 231092458#1 24576384#2 24576384#3 24576384#4 24553696#3 252574746#0 252574746#1 -25464947#2 -25464947#1"/>
    </vehicle>
    <vehicle id="27" type="type1" depart="27.00">
        <route edges="162606865#2 -162606865#2 263502995#6 263641094#4 263641094#5 263641094#6 263641094#7 47515634 47515622#0 47515622#1 47515622#2 47515622#3 47515622#4 47515622#5 47515622#6 47515622#7 47515622#8 121846043 248808903#0 248808903#1 248808903#2 248808903#3 248808903#4 248808903#5 231091475#0 231091475#1 127536292#1 56235264#0 56235264#1 231100858#0 24552855#1 24552855#2 231094421 291468707#0 291468707#1 44369040 165471575#0 165471575#1 165471575#2 163596805#1 163596805#0 24576603#2"/>
    </vehicle>
    <vehicle id="28" type="type1" depart="28.00">
        <route edges="164417448#5 164801791#5 164801791#6 24574304#3 24574304#4 24574304#5 24574304#6 53366716#0 53366716#1 53366716#2 53366716#3 53366716#4"/>
    </vehicle>
    <vehicle id="29" type="type1" depart="29.00">
        <route edges="24553009 -263837311#0 263837390 -24553001#1 -24553001#0 24576603#5 24576603#6 161392536#0 161392536#1 161392536#2 163603476#8 163596795#0 163596795#1 125539242 44356660#0 44356660#1 29429114#0 29429114#1 29429114#2 24775962#5 171671488#0"/>
    </vehicle>
    <vehicle id="30" type="type1" depart="30.00">
        <route edges="121846091 24553779 121848066#0 121848066#1 24553767#0 24553767#1 24552835#7 231092035#1 231092035#2 231090367 24576673 131490365#0 113798872#0 113798872#1 161885250 55200328#2 55200328#3 55200328#4 55200328#5 161885244 55200329#1 55200329#2 161885242 55200326#1 55200326#2 55200326#3 55200326#4 163214480 231094424#0 231094424#1 231094423#0 231094423#1 231094423#2 231094423#3 231094423#4 231094423#5 231094423#6 231094634#0 231094634#1 231094634#2 231094634#3 231094851#0 231094851#1 231094851#2 231094851#3 161885252 231095197#1 231095194#1 231095194#2 231095194#3 231095194#4 231095194#5 29464177#3 173545697#5"/>
    </vehicle>
    <vehicle id="31" type="type1" depart="31.00">
        <route edges="125539245#0 29430031#3 29430031#4 29430031#5 29430031#6 24959937#5 24959937#6 24959937#7 24959937#8 24959937#9 24959937#10 24959937#11 164417448#0 164417448#1 164417448#2 164417448#3 164417448#4 164417448#5 164801791#5 38855900#0 38855900#1 38855900#2 231094156#0 231094156#1 231094156#2 257599159#0 70461391#1 70461391#2"/>
    </vehicle>
    <vehicle id="32" type="type1" depart="32.00">
        <route edges="161392536#2 163603476#8 289829949#0 289829949#1 289829949#2 289829949#3 125542069 125542078#0 125542078#1 263505507#0 263505507#1 263505507#2 263505507#3 263505507#4 263505507#5 263505507#6 263505507#7 263505507#8 263505518#0 263505518#1 263505518#2 263505518#3 24576630#0 24576630#1 24576630#2 24576630#3 24576630#4 56235459#0 56235459#1 56235459#2 56235459#3 231094156#0 231094156#1 231094156#2 257599159#0 70461391#1 70461391#2"/>
    </vehicle>
    <vehicle id="33" type="type1" depart="33.00">
        <route edges="24552835#5 24552835#6 24552835#7 231092035#1 231092035#2 231090367 24576673 131490365#0 113798872#0 113798872#1 161885250 55200328#2 55200328#3 55200328#4 55200328#5 161885244 55200329#1 55200329#2 161885242 55200326#1 55200326#2 55200326#3 55200326#4 163214480 231094424#0 231094424#1 231094423#0 231094423#1 231094423#2 231094423#3 231094423#4 231094423#5 231094423#6 231094634#0 231094634#1 231094634#2 231094634#3 231094851#0 231094851#1 231094851#2 231094851#3 231094851#4 231095199#0 231095199#1 231095199#2 231095199#3 231095199#4 231095199#5 231095199#6 231095199#7 231095199#8 231095199#9 231095199#10 161885237 231095195#8 231095763#1 231095763#2 289829957#0 289829957#1 -29464181#0"/>
    </vehicle>
    <vehicle id="34" type="type1" depart="34.00">
        <route edges="231102787#2 24775740#1 24775740#2 24775740#3 24775740#4 24775740#5 24775740#6 24775740#7 24775740#8 24775740#9 232923420#0 232923420#1 195655597#0 195655597#1 121823814#0 -175091975#3 47515622#13 231107710#0 -126271644#10 -126271644#9 -126271644#8 -126271644#7 -126271644#6 -126271644#5 -126271644#4 -126271644#3 -126271644#2"/>
    </vehicle>
    <vehicle id="35" type="type1" depart="35.00">
        <route edges="121846091 24553779 121848066#0 121848066#1 24553767#0 24553767#1 24552835#7 231092035#1 231092035#2 231090367 121846086#0 121846086#1 121846086#2 127536292#0 127536292#1 56235264#0 56235264#1 231100858#0 231100858#1 231100858#2 231100858#3 231100862#0 231100862#1 -263837313#1 -39571319#8"/>
    </vehicle>
    <vehicle id="36" type="type1" depart="36.00">
        <route edges="24600571#1 24600571#2 24553689#7 24553689#8 24576463#1 24576463#2 24576437 24576439 24601064#0 24601064#1 55199745#0 55199745#1 231092960#0 231092960#1 113798873 113798872#0 113798872#1 161885250 55200328#2 55200328#3 55200328#4 55200328#5 161885244 55200329#1 55200329#2 161885242 55200326#1 231093229#1"/>
    </vehicle>
    <vehicle id="37" type="type1" depart="37.00">
        <route edges="164417448#5 164801791#5 164801791#6 24574304#3 24574304#4 24574304#5 24574304#6 24574304#7 24574304#8 24574304#9 24959937#11 24959937#12 165471575#2 165471575#3 232922869#0 232922869#1 231094635#0 231094423#3 231094423#4 231094423#5 231094423#6 231094634#0 231094634#1 231094634#2 231094636#1 231100859#0 231100859#1 231100859#2 231103931#0 231103931#1 231103931#2 231103931#3 231103931#4 231107710#5 231103930#4"/>
    </vehicle>
    <vehicle id="38" type="type1" depart="38.00">
        <route edges="289829957#1 29464181#1 29464181#2 173545697#4 173545697#5 173545697#6 44867748#0 125542086#0 125542086#1 125542086#2 125542086#3 125542086#4 125542078#0 125542078#1 263505507#0 263505507#1 263505507#2 263505507#3 263505507#4 263505507#5 263505507#6 263505507#7 263505507#8 263505518#0 263505518#1 263505518#2 263505518#3 24576630#0 24576630#1 24576630#2 24576630#3 24576630#4 231094153#0 231094153#1 231094153#2 231094153#3 231094153#4 231094153#5 24553696#0 24553696#1 24553696#2 24553696#3 252574746#0 252574746#1 252574746#2 28956301#3 28956301#4 28956301#5 24576379#4 24553958#0 24553958#1 24553958#2 195655598#0 195655598#1 47515620#3"/>
    </vehicle>
    <vehicle id="39" type="type1" depart="39.00">
        <route edges="171671488#0 171671488#1 171671488#2 24576729#0 24576729#1 289829949#0 29464177#0 29464177#1 29464177#2 29464177#3 173545697#5 173545697#6 44867748#0 44867748#1 231095196#0 231095196#1 231101466#0 231101466#1 231101466#2 231102766#0 231102766#1"/>
    </vehicle>
    <vehicle id="40" type="type1" depart="40.00">
        <route edges="24775962#11 231095194#10 231095194#11 29422710#2 304610300#0 304610300#1 304610300#2 304610300#3 304610300#4 304610300#5 24576729#0 24576729#1 289829949#0 289829949#1 289829949#2 289829949#3 125542069 125542078#0 125542078#1 263505507#0 263505507#1 263505507#2 263505507#3 263505507#4 263505507#5 263505507#6 263505507#7 263505507#8 263505518#0 263505518#1 263505518#2 263505518#3 70586543#2 231093229#0 231093229#1 231100857#0 231100857#1 231100863#3 56235269#0 56235269#1 56235269#2 231091479#1 231091479#2 231091479#3 231091479#4 231091479#5 121846101#3 121848066#0 121848066#1"/>
    </vehicle>
    <vehicle id="41" type="type1" depart="41.00">
        <route edges="-28745211 125542086#4 125542078#0 125542078#1 263505507#0 263505507#1 263505507#2 263505507#3 263505507#4 263505507#5 263505507#6 263505507#7 263505507#8 263505518#0 263505518#1 263505518#2 263505518#3 70586543#2 231093229#0 231093229#1 231100857#0 231100857#1 231100863#3 56235269#0 56235269#1 56235269#2 56235269#3 56235269#4 56235269#5 231091474 289957316#0 289957316#1 231092455#0 231092455#1 276650447 231092458#0 194963121#0 194963121#1 -24600427 24600427"/>
    </vehicle>
    <vehicle id="42" type="type1" depart="42.00">
        <route edges="-70461391#2 24576533#0 24576533#1 24574304#2 24574304#3 24574304#4 24574304#5 24574304#6 24574304#7 24574304#8 165471576#2 165471576#3 125539250#0 125539250#1 165471580#0 165471580#1 165471580#2 165471580#3 165471580#4 29430888#0 29430888#1 29429114#0 29430031#2 125539245#1"/>
    </vehicle>
    <vehicle id="43" type="type1" depart="43.00">
        <route edges="-126271644#4 126271644#4 126271644#5 126271644#6 126271644#7 231107719#1 231107717#1 231107717#2 231107711#0 231107711#1 24554228#0 24554228#1 24554228#2 231103929#0 231103929#1 231100865#0 231100865#1 231100865#2 231094422 291469316 263505510 165471576#0 165471576#1 165471576#2 165471576#3 125539250#0 125539250#1 165471580#0 165471580#1 165471580#2 165471580#3 165471580#4 29430888#0 125539245#2 125539245#3 291750963"/>
    </vehicle>
    <vehicle id="44" type="type1" depart="44.00">
        <route edges="24552851#4 29430644#4 56235265#3 164417448#3 164417448#4 70586543#0 70586543#1 24576630#0 24576630#1 24576630#2 24576630#3 24576630#4 231094153#0 231094153#1 231094153#2 231094153#3 231094153#4 231094153#5 24553719#5 24553719#6 24553719#7 24553719#8 24753283 24753282#0 24753282#1 122739483 122739488#0 122739488#1 24576402 24553972#0 24554058#0 24554058#1 24554058#2 263641094#5"/>
    </vehicle>
    <vehicle id="45" type="type1" depart="45.00">
        <route edges="-70461391#2 24576533#0 24576533#1 24576533#2 24576533#3 24576533#4 24576533#5 24576533#6 231092958#0 55200328#3 55200328#4 55200328#5 161885244 55200329#1 55200329#2 161885242 55200326#1 55200326#2 55200326#3 55200326#4 163214480 231094424#0 231094424#1"/>
    </vehicle>
    <vehicle id="47" type="type1" depart="47.00">
        <route edges="-70461391#2 24576533#0 24576533#1 24576533#2 24576533#3 24576533#4 24576533#5 24576630#3 24576630#4 231094153#0 231094153#1 231094153#2 231094153#3 231094153#4 231094153#5 24553696#0 24553696#1 24553696#2 24553696#3 252574746#0 252574746#1 252574746#2 28956301#3 28956301#4 28956301#5 24576379#4 24553958#0"/>
    </vehicle>
    <vehicle id="50" type="type1" depart="50.00">
        <route edges="-70461391#2 24576533#0 24576533#1 24576533#2 24576533#3 24576533#4"/>
    </vehicle>
    <vehicle id="51" type="type1" depart="51.00">
        <route edges="-28745211 125542086#4 125542078#0 125542078#1 263505507#0 263505507#1 263505507#2 263505507#3 263505507#4 263505507#5 263505507#6 263505507#7 263505507#8 263505518#0 263505518#1 263505518#2 263505518#3 70586543#2 231093229#0 231093229#1 231100857#0 231100857#1 231100857#2 231103924#0 231103924#1 231103924#2 231103924#3 231103924#4 231103924#5 231103924#6 231103924#7 231107719#6 231107719#7 231107719#8 231107719#9 231107719#10"/>
    </vehicle>
    <vehicle id="52" type="type1" depart="52.00">
        <route edges="260110495#0 -260110495#0 -43548864 47515622#7 47515622#8 121846043 248808903#0 248808903#1 248808903#2 248808903#3 248808903#4 248808903#5 231091475#0 231091475#1 231091475#2 164801791#0 55200329#2 161885242 55200326#1 55200326#2 55200326#3 55200326#4 163214480 231094424#0 231094424#1 231094423#0 231094423#1 231094423#2 231094423#3 231094423#4 231094423#5 231094423#6 231094634#0 231094634#1 231094634#2 231094634#3 231094851#0 231094851#1 231094851#2 231095198#1 231100861#0 -39571319#5 39571319#5"/>
    </vehicle>
    <vehicle id="53" type="type1" depart="53.00">
        <route edges="231095194#1 125542086#1 125542086#2 125542086#3 125542086#4 125542078#0 125542078#1 263505507#0 263505507#1 263505507#2 263505507#3 263505507#4 263505507#5 263505507#6 263505507#7 263505507#8 263505518#0 263505518#1 56235265#2 56235265#3 56235265#4 53366716#0 24776039 165471574#0"/>
    </vehicle>
    <vehicle id="54" type="type1" depart="54.00">
        <route edges="-24600787 24600787 24576437 24576439 24601064#0 24601064#1 55199745#0 55199745#1 231092960#0 231092960#1 113798873 113798872#0 113798872#1 161885250 55200328#2 55200328#3 55200328#4 55200328#5 161885244 55200329#1 55200329#2 161885242 55200326#1 55200326#2 55200326#3 55200326#4 163214480 231094424#0 231094424#1 231094423#0 231094423#1 231094423#2 231094423#3 231094423#4 231094423#5 231094423#6 231094634#0 231094634#1 231094634#2 231094634#3 231094851#0 231094851#1 231094851#2 231094851#3 231094851#4 231095199#0 231095199#1 231095199#2 231095196#1 231101466#0 231101466#1 231101466#2 231102766#0 231102766#1 231102766#2 316393925#9 121823817#1"/>
    </vehicle>
    <vehicle id="55" type="type1" depart="55.00">
        <route edges="-72623884#6 121846101#2 121846101#3 121848066#0 121848066#1 24553767#0 24553767#1 24553767#2 231091819 289957317 231091820 127724115 127724111#0 127724111#1 127724111#2 127724111#3 231094162#0 231094162#1 231094162#2 257603164 231094156#1 24574304#0 24574304#1 24576533#2 24576533#3"/>
    </vehicle>
    <vehicle id="56" type="type1" depart="56.00">
        <route edges="29430888#6 29430888#7 173545697#2 173545697#3 173545697#4 173545697#5 173545697#6 44867748#0 125542086#0 125542086#1 125542086#2 125542086#3 125542086#4 125542078#0 125542078#1 263505507#0 263505507#1 263505507#2 263505507#3 263505507#4 263505507#5 263505507#6 263505507#7 263505507#8 263505518#0 263505518#1 263505518#2 263505518#3 24576630#0 24576630#1 24576630#2 24576630#3 24576630#4 56235459#0 56235459#1 56235459#2 56235459#3 231094156#0 231094156#1 231094156#2 231094156#3"/>
    </vehicle>
    <vehicle id="57" type="type1" depart="57.00">
        <route edges="-187783200 187783200 263641094#7 47515634 47515622#0 47515622#1 47515622#2 47515622#3 47515622#4 47515622#5 47515622#6 47515622#7 47515622#8 121846043 248808903#0 248808903#1 248808903#2 248808903#3 248808903#4 248808903#5 231091475#0 231091475#1 231091475#2 164801791#0 55200329#2 161885242 55200326#1 55200326#2 55200326#3 55200326#4 163214480 231094424#0 231094424#1 231094423#0 231094423#1 231094423#2 231094423#3 231094423#4 231094423#5 231094423#6 231094634#0 231094634#1 231094634#2 231094634#3 231094851#0 231094851#1 231094851#2 231095198#1 231100861#0 -39571319#5 -39571319#4"/>
    </vehicle>
    <vehicle id="58" type="type1" depart="58.00">
        <route edges="231100863#3 56235269#0 56235269#1 56235269#2 56235269#3 56235269#4 56235269#5 231091474 289957316#0 289957316#1 231092455#0 231092455#1 276650447 231092458#0 231092458#1 24576384#2 24576384#3 24576384#4 24553696#3 252574746#0 252574746#1 -25464947#2 -25464947#1"/>
    </vehicle>
    <vehicle id="59" type="type1" depart="59.00">
        <route edges="161885234 231101479#0 231101479#1 231101468#2 231095763#0 231095763#1 231095763#2 289829956#0 289829956#1 289829958 248813647 24576628 125542086#0 125542086#1 125542086#2 125542086#3 125542086#4 125542078#0 125542078#1 263505507#0 263505507#1 263505507#2 263505507#3 263505507#4 263505507#5 232922869#1 231094635#0 231094635#1 231100864#0 231100864#1 231100864#2 231103923#0 231103927#1 161884107 161884103 231103927#3 231103927#4 231103925#0 231103925#1 161884112 231101546#5 161884098 231103925#3"/>
    </vehicle>
    <vehicle id="60" type="type1" depart="60.00">
        <route edges="178457327#2 29430031#6 24959937#5 24959937#6 24959937#7 24959937#8 24959937#9 24959937#10 24959937#11 24959937#12 24959937#13 263505507#7 263505507#8 263505518#0 263505518#1 263505518#2 263505518#3 24576630#0 24576630#1 24576630#2 24576630#3 24576630#4 56235459#0 71443365#0 -72623884#14"/>
    </vehicle>
    <vehicle id="61" type="type1" depart="61.00">
        <route edges="28745211 231094850 231094853#0 231094853#1 231094853#2 231101471#2 231101471#3 231101473#0 231101473#1 231101473#2 231100863#0 231100863#1 231100863#2 231100863#3 56235269#0 56235269#1 56235269#2 231091479#1 231091479#2 24553615#1 24553615#2 24553615#3 24553615#4 231092028#0 231092028#1 195556937#0 195556937#1 195556937#2 195556937#3 195556937#4 195556937#5 195556937#6 248806638#0 248806638#1"/>
    </vehicle>
    <vehicle id="62" type="type1" depart="62.00">
        <route edges="231102802#0 231102802#1 231102793#1 231101467#0 231101467#1 231101467#2 231101467#3 231101471#0 231101471#1 231101471#2 231101471#3 231101473#0 231101473#1 165471577#5 -24552999#2"/>
    </vehicle>
    <vehicle id="63" type="type1" depart="63.00">
        <route edges="-161885234 231095199#5 231095199#6 231095199#7 231095199#8 231095199#9 231095199#10 231095199#11 231095766#0 231095766#1 231095764#1 231101470#0 231101470#1 231101478#2 231101467#0 231101467#1 231101467#2 231101466#2 231102766#0 231102766#1"/>
    </vehicle>
    <vehicle id="65" type="type1" depart="65.00">
        <route edges="24554415#0 231107710#2 231107710#3 24783521#4 232923420#0 232923420#1 195655597#0 195655597#1 121823814#0 121823814#1 121823814#2 121823814#3 121823814#4 121823815#5 248808902#0 248808902#1 47515636 47515631#0 47515631#1 47515631#2 24553948#0 24553948#1"/>
    </vehicle>
    <vehicle id="66" type="type1" depart="66.00">
        <route edges="24552835#3 24552835#4 248806638#1 252577421#0 252577421#1 252577421#2 252577421#3 252577421#4 252577421#5 252577421#6 61351202 231092035#2 231090367 24576673 131490365#0 113798872#0 113798872#1 161885250 55200328#2 55200328#3 55200328#4 55200328#5 161885244 55200329#1 55200329#2 161885242 55200326#1 55200326#2 55200326#3 55200326#4 163214480 231094424#0 161885243 291468708#1 291469316 263505510 165471576#0 165471576#1 165471576#2 165471576#3 125539250#0 125539250#1 165471580#0 165471580#1 165471580#2 24959937#7 -257956762#6"/>
    </vehicle>